REMARK VINA RESULT:      -5.9     13.071     15.642
REMARK  5 active torsions:
REMARK  status: ('A' for Active; 'I' for Inactive)
REMARK    1  A    between atoms: S_1  and  C_11 
REMARK    2  A    between atoms: S_1  and  C_14 
REMARK       I    between atoms: N_5  and  C_21 
REMARK    3  A    between atoms: C_9  and  C_15 
REMARK    4  A    between atoms: C_16  and  C_21 
REMARK    5  A    between atoms: C_18  and  C_23 
ROOT
HETATM    1  N   UNL     1      27.054  16.834  38.019  1.00  0.00    -0.277 N 
HETATM    2  N   UNL     1      26.513  16.283  36.920  1.00  0.00    -0.174 NA
HETATM    3  C   UNL     1      25.476  18.251  37.461  1.00  0.00     0.022 A 
HETATM    4  C   UNL     1      26.476  18.017  38.397  1.00  0.00     0.064 A 
HETATM    5  C   UNL     1      25.553  17.148  36.582  1.00  0.00     0.089 A 
HETATM    6  C   UNL     1      26.743  18.884  39.459  1.00  0.00     0.051 A 
HETATM    7  C   UNL     1      25.949  20.030  39.556  1.00  0.00     0.007 A 
HETATM    8  C   UNL     1      24.686  19.408  37.571  1.00  0.00     0.017 A 
HETATM    9  C   UNL     1      24.937  20.290  38.630  1.00  0.00     0.020 A 
HETATM   10  H   UNL     1      27.820  16.349  38.469  1.00  0.00     0.189 HD
ENDROOT
BRANCH   7  11
HETATM   11  S   UNL     1      26.236  21.182  40.891  1.00  0.00    -0.089 SA
BRANCH  11  12
HETATM   12  C   UNL     1      24.562  21.552  41.393  1.00  0.00     0.021 A 
HETATM   13  C   UNL     1      23.798  20.654  42.142  1.00  0.00     0.049 A 
HETATM   14  C   UNL     1      22.495  20.985  42.513  1.00  0.00     0.018 A 
HETATM   15  C   UNL     1      21.952  22.212  42.135  1.00  0.00     0.001 A 
HETATM   16  C   UNL     1      22.712  23.111  41.387  1.00  0.00     0.001 A 
HETATM   17  C   UNL     1      24.015  22.780  41.016  1.00  0.00     0.020 A 
BRANCH  13  18
HETATM   18  C   UNL     1      24.315  19.358  42.565  1.00  0.00     0.252 C 
HETATM   19  O   UNL     1      25.063  19.272  43.551  1.00  0.00    -0.268 OA
HETATM   20  N   UNL     1      23.908  18.245  41.824  1.00  0.00    -0.361 N 
HETATM   21  C   UNL     1      24.314  16.891  42.132  1.00  0.00     0.149 C 
HETATM   22  H   UNL     1      23.264  18.380  41.050  1.00  0.00     0.162 HD
ENDBRANCH  13  18
ENDBRANCH  11  12
ENDBRANCH   7  11
BRANCH   5  23
HETATM   23  C   UNL     1      24.709  16.961  35.456  1.00  0.00     0.036 C 
HETATM   24  C   UNL     1      25.068  16.614  34.192  1.00  0.00     0.034 C 
BRANCH  24  25
HETATM   25  C   UNL     1      24.140  16.447  33.059  1.00  0.00     0.056 A 
HETATM   26  N   UNL     1      22.960  15.883  33.364  1.00  0.00    -0.261 NA
HETATM   27  C   UNL     1      22.103  15.725  32.331  1.00  0.00     0.117 A 
HETATM   28  C   UNL     1      22.382  16.105  31.027  1.00  0.00     0.019 A 
HETATM   29  C   UNL     1      23.619  16.684  30.768  1.00  0.00     0.004 A 
HETATM   30  C   UNL     1      24.527  16.862  31.806  1.00  0.00     0.031 A 
ENDBRANCH  24  25
ENDBRANCH   5  23
TORSDOF 5
