REMARK VINA RESULT:      -5.4      9.553     11.598
REMARK  5 active torsions:
REMARK  status: ('A' for Active; 'I' for Inactive)
REMARK    1  A    between atoms: S_1  and  C_11 
REMARK    2  A    between atoms: S_1  and  C_14 
REMARK       I    between atoms: N_5  and  C_21 
REMARK    3  A    between atoms: C_9  and  C_15 
REMARK    4  A    between atoms: C_16  and  C_21 
REMARK    5  A    between atoms: C_18  and  C_23 
ROOT
HETATM    1  N   UNL     1      36.799  18.470  30.276  1.00  0.00    -0.277 N 
HETATM    2  N   UNL     1      36.595  19.498  31.117  1.00  0.00    -0.174 NA
HETATM    3  C   UNL     1      35.064  19.498  29.415  1.00  0.00     0.022 A 
HETATM    4  C   UNL     1      35.914  18.413  29.233  1.00  0.00     0.064 A 
HETATM    5  C   UNL     1      35.538  20.121  30.590  1.00  0.00     0.089 A 
HETATM    6  C   UNL     1      35.790  17.519  28.167  1.00  0.00     0.051 A 
HETATM    7  C   UNL     1      34.753  17.754  27.260  1.00  0.00     0.007 A 
HETATM    8  C   UNL     1      34.026  19.721  28.495  1.00  0.00     0.017 A 
HETATM    9  C   UNL     1      33.884  18.836  27.419  1.00  0.00     0.020 A 
HETATM   10  H   UNL     1      37.566  17.838  30.471  1.00  0.00     0.189 HD
ENDROOT
BRANCH   7  11
HETATM   11  S   UNL     1      34.537  16.650  25.873  1.00  0.00    -0.089 SA
BRANCH  11  12
HETATM   12  C   UNL     1      34.519  15.063  26.695  1.00  0.00     0.021 A 
HETATM   13  C   UNL     1      33.335  14.481  27.153  1.00  0.00     0.049 A 
HETATM   14  C   UNL     1      33.367  13.240  27.789  1.00  0.00     0.018 A 
HETATM   15  C   UNL     1      34.581  12.580  27.971  1.00  0.00     0.001 A 
HETATM   16  C   UNL     1      35.766  13.159  27.515  1.00  0.00     0.001 A 
HETATM   17  C   UNL     1      35.734  14.400  26.879  1.00  0.00     0.020 A 
BRANCH  13  18
HETATM   18  C   UNL     1      32.037  15.127  26.990  1.00  0.00     0.252 C 
HETATM   19  O   UNL     1      31.783  16.183  27.588  1.00  0.00    -0.268 OA
HETATM   20  N   UNL     1      31.132  14.512  26.121  1.00  0.00    -0.361 N 
HETATM   21  C   UNL     1      29.816  15.041  25.836  1.00  0.00     0.149 C 
HETATM   22  H   UNL     1      31.417  13.668  25.633  1.00  0.00     0.162 HD
ENDBRANCH  13  18
ENDBRANCH  11  12
ENDBRANCH   7  11
BRANCH   5  23
HETATM   23  C   UNL     1      34.965  21.286  31.165  1.00  0.00     0.036 C 
HETATM   24  C   UNL     1      33.686  21.466  31.588  1.00  0.00     0.034 C 
BRANCH  24  25
HETATM   25  C   UNL     1      33.148  22.710  32.167  1.00  0.00     0.056 A 
HETATM   26  N   UNL     1      31.808  22.807  32.171  1.00  0.00    -0.261 NA
HETATM   27  C   UNL     1      31.305  23.945  32.699  1.00  0.00     0.117 A 
HETATM   28  C   UNL     1      32.083  24.971  33.214  1.00  0.00     0.019 A 
HETATM   29  C   UNL     1      33.464  24.817  33.184  1.00  0.00     0.004 A 
HETATM   30  C   UNL     1      34.018  23.660  32.648  1.00  0.00     0.031 A 
ENDBRANCH  24  25
ENDBRANCH   5  23
TORSDOF 5
