REMARK VINA RESULT:      -5.7      8.674     11.476
REMARK  5 active torsions:
REMARK  status: ('A' for Active; 'I' for Inactive)
REMARK    1  A    between atoms: S_1  and  C_11 
REMARK    2  A    between atoms: S_1  and  C_14 
REMARK       I    between atoms: N_5  and  C_21 
REMARK    3  A    between atoms: C_9  and  C_15 
REMARK    4  A    between atoms: C_16  and  C_21 
REMARK    5  A    between atoms: C_18  and  C_23 
ROOT
HETATM    1  N   UNL     1      36.310  18.978  30.548  1.00  0.00    -0.277 N 
HETATM    2  N   UNL     1      35.851  19.869  31.443  1.00  0.00    -0.174 NA
HETATM    3  C   UNL     1      34.364  19.568  29.729  1.00  0.00     0.022 A 
HETATM    4  C   UNL     1      35.465  18.753  29.495  1.00  0.00     0.064 A 
HETATM    5  C   UNL     1      34.666  20.225  30.942  1.00  0.00     0.089 A 
HETATM    6  C   UNL     1      35.571  17.920  28.379  1.00  0.00     0.051 A 
HETATM    7  C   UNL     1      34.504  17.929  27.476  1.00  0.00     0.007 A 
HETATM    8  C   UNL     1      33.298  19.567  28.813  1.00  0.00     0.017 A 
HETATM    9  C   UNL     1      33.386  18.738  27.687  1.00  0.00     0.020 A 
HETATM   10  H   UNL     1      37.215  18.557  30.715  1.00  0.00     0.189 HD
ENDROOT
BRANCH   7  11
HETATM   11  S   UNL     1      34.576  16.887  26.028  1.00  0.00    -0.089 SA
BRANCH  11  12
HETATM   12  C   UNL     1      34.791  15.277  26.771  1.00  0.00     0.021 A 
HETATM   13  C   UNL     1      33.704  14.492  27.164  1.00  0.00     0.049 A 
HETATM   14  C   UNL     1      33.919  13.240  27.741  1.00  0.00     0.018 A 
HETATM   15  C   UNL     1      35.218  12.770  27.927  1.00  0.00     0.001 A 
HETATM   16  C   UNL     1      36.305  13.552  27.535  1.00  0.00     0.001 A 
HETATM   17  C   UNL     1      36.091  14.804  26.959  1.00  0.00     0.020 A 
BRANCH  13  18
HETATM   18  C   UNL     1      32.325  14.933  26.994  1.00  0.00     0.252 C 
HETATM   19  O   UNL     1      31.809  15.711  27.812  1.00  0.00    -0.268 OA
HETATM   20  N   UNL     1      31.645  14.459  25.869  1.00  0.00    -0.361 N 
HETATM   21  C   UNL     1      30.283  14.823  25.548  1.00  0.00     0.149 C 
HETATM   22  H   UNL     1      32.138  13.854  25.217  1.00  0.00     0.162 HD
ENDBRANCH  13  18
ENDBRANCH  11  12
ENDBRANCH   7  11
BRANCH   5  23
HETATM   23  C   UNL     1      33.814  21.168  31.575  1.00  0.00     0.036 C 
HETATM   24  C   UNL     1      33.854  22.523  31.484  1.00  0.00     0.034 C 
BRANCH  24  25
HETATM   25  C   UNL     1      32.944  23.451  32.180  1.00  0.00     0.056 A 
HETATM   26  N   UNL     1      31.634  23.199  32.016  1.00  0.00    -0.261 NA
HETATM   27  C   UNL     1      30.792  24.045  32.650  1.00  0.00     0.117 A 
HETATM   28  C   UNL     1      31.208  25.115  33.427  1.00  0.00     0.019 A 
HETATM   29  C   UNL     1      32.575  25.329  33.563  1.00  0.00     0.004 A 
HETATM   30  C   UNL     1      33.472  24.479  32.925  1.00  0.00     0.031 A 
ENDBRANCH  24  25
ENDBRANCH   5  23
TORSDOF 5
