REMARK VINA RESULT:      -5.8     13.275     14.362
REMARK  5 active torsions:
REMARK  status: ('A' for Active; 'I' for Inactive)
REMARK    1  A    between atoms: S_1  and  C_11 
REMARK    2  A    between atoms: S_1  and  C_14 
REMARK       I    between atoms: N_5  and  C_21 
REMARK    3  A    between atoms: C_9  and  C_15 
REMARK    4  A    between atoms: C_16  and  C_21 
REMARK    5  A    between atoms: C_18  and  C_23 
ROOT
HETATM    1  N   UNL     1      38.490  20.201  32.422  1.00  0.00    -0.277 N 
HETATM    2  N   UNL     1      38.639  19.039  33.081  1.00  0.00    -0.174 NA
HETATM    3  C   UNL     1      38.833  20.828  34.495  1.00  0.00     0.022 A 
HETATM    4  C   UNL     1      38.596  21.313  33.215  1.00  0.00     0.064 A 
HETATM    5  C   UNL     1      38.847  19.424  34.342  1.00  0.00     0.089 A 
HETATM    6  C   UNL     1      38.503  22.675  32.921  1.00  0.00     0.051 A 
HETATM    7  C   UNL     1      38.662  23.565  33.986  1.00  0.00     0.007 A 
HETATM    8  C   UNL     1      38.990  21.735  35.557  1.00  0.00     0.017 A 
HETATM    9  C   UNL     1      38.902  23.106  35.283  1.00  0.00     0.020 A 
HETATM   10  H   UNL     1      38.318  20.166  31.425  1.00  0.00     0.189 HD
ENDROOT
BRANCH   7  11
HETATM   11  S   UNL     1      38.557  25.322  33.681  1.00  0.00    -0.089 SA
BRANCH  11  12
HETATM   12  C   UNL     1      36.869  25.473  33.114  1.00  0.00     0.021 A 
HETATM   13  C   UNL     1      36.515  26.320  32.061  1.00  0.00     0.049 A 
HETATM   14  C   UNL     1      35.185  26.407  31.651  1.00  0.00     0.018 A 
HETATM   15  C   UNL     1      34.206  25.649  32.293  1.00  0.00     0.001 A 
HETATM   16  C   UNL     1      34.556  24.803  33.345  1.00  0.00     0.001 A 
HETATM   17  C   UNL     1      35.886  24.716  33.755  1.00  0.00     0.020 A 
BRANCH  13  18
HETATM   18  C   UNL     1      37.497  27.134  31.355  1.00  0.00     0.252 C 
HETATM   19  O   UNL     1      37.784  28.269  31.768  1.00  0.00    -0.268 OA
HETATM   20  N   UNL     1      38.098  26.564  30.230  1.00  0.00    -0.361 N 
HETATM   21  C   UNL     1      39.106  27.235  29.439  1.00  0.00     0.149 C 
HETATM   22  H   UNL     1      37.845  25.616  29.967  1.00  0.00     0.162 HD
ENDBRANCH  13  18
ENDBRANCH  11  12
ENDBRANCH   7  11
BRANCH   5  23
HETATM   23  C   UNL     1      39.059  18.506  35.403  1.00  0.00     0.036 C 
HETATM   24  C   UNL     1      38.252  17.486  35.799  1.00  0.00     0.034 C 
BRANCH  24  25
HETATM   25  C   UNL     1      38.524  16.571  36.922  1.00  0.00     0.056 A 
HETATM   26  N   UNL     1      39.825  16.352  37.180  1.00  0.00    -0.261 NA
HETATM   27  C   UNL     1      40.084  15.513  38.207  1.00  0.00     0.117 A 
HETATM   28  C   UNL     1      39.105  14.896  38.971  1.00  0.00     0.019 A 
HETATM   29  C   UNL     1      37.775  15.159  38.660  1.00  0.00     0.004 A 
HETATM   30  C   UNL     1      37.470  16.016  37.609  1.00  0.00     0.031 A 
ENDBRANCH  24  25
ENDBRANCH   5  23
TORSDOF 5
