REMARK VINA RESULT:      -5.5     13.140     14.114
REMARK  5 active torsions:
REMARK  status: ('A' for Active; 'I' for Inactive)
REMARK    1  A    between atoms: S_1  and  C_11 
REMARK    2  A    between atoms: S_1  and  C_14 
REMARK       I    between atoms: N_5  and  C_21 
REMARK    3  A    between atoms: C_9  and  C_15 
REMARK    4  A    between atoms: C_16  and  C_21 
REMARK    5  A    between atoms: C_18  and  C_23 
ROOT
HETATM    1  N   UNL     1      27.017  15.628  35.371  1.00  0.00    -0.277 N 
HETATM    2  N   UNL     1      26.951  15.707  36.711  1.00  0.00    -0.174 NA
HETATM    3  C   UNL     1      25.037  16.497  35.735  1.00  0.00     0.022 A 
HETATM    4  C   UNL     1      25.900  16.086  34.726  1.00  0.00     0.064 A 
HETATM    5  C   UNL     1      25.745  16.236  36.929  1.00  0.00     0.089 A 
HETATM    6  C   UNL     1      25.580  16.172  33.369  1.00  0.00     0.051 A 
HETATM    7  C   UNL     1      24.327  16.700  33.045  1.00  0.00     0.007 A 
HETATM    8  C   UNL     1      23.781  17.025  35.394  1.00  0.00     0.017 A 
HETATM    9  C   UNL     1      23.441  17.120  34.039  1.00  0.00     0.020 A 
HETATM   10  H   UNL     1      27.860  15.249  34.956  1.00  0.00     0.189 HD
ENDROOT
BRANCH   7  11
HETATM   11  S   UNL     1      23.855  16.839  31.329  1.00  0.00    -0.089 SA
BRANCH  11  12
HETATM   12  C   UNL     1      24.577  18.416  30.898  1.00  0.00     0.021 A 
HETATM   13  C   UNL     1      25.703  18.514  30.077  1.00  0.00     0.049 A 
HETATM   14  C   UNL     1      26.234  19.765  29.766  1.00  0.00     0.018 A 
HETATM   15  C   UNL     1      25.642  20.921  30.275  1.00  0.00     0.001 A 
HETATM   16  C   UNL     1      24.518  20.826  31.096  1.00  0.00     0.001 A 
HETATM   17  C   UNL     1      23.987  19.574  31.407  1.00  0.00     0.020 A 
BRANCH  13  18
HETATM   18  C   UNL     1      26.362  17.339  29.517  1.00  0.00     0.252 C 
HETATM   19  O   UNL     1      27.077  16.621  30.232  1.00  0.00    -0.268 OA
HETATM   20  N   UNL     1      26.124  17.066  28.167  1.00  0.00    -0.361 N 
HETATM   21  C   UNL     1      26.684  15.927  27.474  1.00  0.00     0.149 C 
HETATM   22  H   UNL     1      25.497  17.674  27.647  1.00  0.00     0.162 HD
ENDBRANCH  13  18
ENDBRANCH  11  12
ENDBRANCH   7  11
BRANCH   5  23
HETATM   23  C   UNL     1      25.244  16.501  38.230  1.00  0.00     0.036 C 
HETATM   24  C   UNL     1      24.312  15.797  38.926  1.00  0.00     0.034 C 
BRANCH  24  25
HETATM   25  C   UNL     1      23.823  16.133  40.275  1.00  0.00     0.056 A 
HETATM   26  N   UNL     1      24.439  17.172  40.865  1.00  0.00    -0.261 NA
HETATM   27  C   UNL     1      23.998  17.487  42.103  1.00  0.00     0.117 A 
HETATM   28  C   UNL     1      22.982  16.810  42.760  1.00  0.00     0.019 A 
HETATM   29  C   UNL     1      22.379  15.744  42.103  1.00  0.00     0.004 A 
HETATM   30  C   UNL     1      22.807  15.390  40.828  1.00  0.00     0.031 A 
ENDBRANCH  24  25
ENDBRANCH   5  23
TORSDOF 5
