REMARK VINA RESULT:      -8.0     12.205     18.358
REMARK  5 active torsions:
REMARK  status: ('A' for Active; 'I' for Inactive)
REMARK    1  A    between atoms: S_1  and  C_11 
REMARK    2  A    between atoms: S_1  and  C_14 
REMARK       I    between atoms: N_5  and  C_21 
REMARK    3  A    between atoms: C_9  and  C_15 
REMARK    4  A    between atoms: C_16  and  C_21 
REMARK    5  A    between atoms: C_18  and  C_23 
ROOT
HETATM    1  N   UNL     1      41.570  16.956  38.865  1.00  0.00    -0.277 N 
HETATM    2  N   UNL     1      40.699  16.239  39.596  1.00  0.00    -0.174 NA
HETATM    3  C   UNL     1      39.786  16.868  37.593  1.00  0.00     0.022 A 
HETATM    4  C   UNL     1      41.083  17.364  37.652  1.00  0.00     0.064 A 
HETATM    5  C   UNL     1      39.615  16.187  38.818  1.00  0.00     0.089 A 
HETATM    6  C   UNL     1      41.661  18.110  36.622  1.00  0.00     0.051 A 
HETATM    7  C   UNL     1      40.871  18.352  35.495  1.00  0.00     0.007 A 
HETATM    8  C   UNL     1      39.005  17.118  36.452  1.00  0.00     0.017 A 
HETATM    9  C   UNL     1      39.565  17.865  35.409  1.00  0.00     0.020 A 
HETATM   10  H   UNL     1      42.487  17.134  39.255  1.00  0.00     0.189 HD
ENDROOT
BRANCH   7  11
HETATM   11  S   UNL     1      41.547  19.300  34.141  1.00  0.00    -0.089 SA
BRANCH  11  12
HETATM   12  C   UNL     1      40.268  20.526  33.906  1.00  0.00     0.021 A 
HETATM   13  C   UNL     1      40.133  21.626  34.756  1.00  0.00     0.049 A 
HETATM   14  C   UNL     1      39.120  22.559  34.535  1.00  0.00     0.018 A 
HETATM   15  C   UNL     1      38.240  22.395  33.465  1.00  0.00     0.001 A 
HETATM   16  C   UNL     1      38.373  21.297  32.615  1.00  0.00     0.001 A 
HETATM   17  C   UNL     1      39.386  20.364  32.836  1.00  0.00     0.020 A 
BRANCH  13  18
HETATM   18  C   UNL     1      41.024  21.848  35.889  1.00  0.00     0.252 C 
HETATM   19  O   UNL     1      42.127  22.390  35.722  1.00  0.00    -0.268 OA
HETATM   20  N   UNL     1      40.560  21.445  37.144  1.00  0.00    -0.361 N 
HETATM   21  C   UNL     1      41.315  21.619  38.365  1.00  0.00     0.149 C 
HETATM   22  H   UNL     1      39.630  21.042  37.217  1.00  0.00     0.162 HD
ENDBRANCH  13  18
ENDBRANCH  11  12
ENDBRANCH   7  11
BRANCH   5  23
HETATM   23  C   UNL     1      38.425  15.514  39.200  1.00  0.00     0.036 C 
HETATM   24  C   UNL     1      38.003  14.280  38.817  1.00  0.00     0.034 C 
BRANCH  24  25
HETATM   25  C   UNL     1      36.745  13.640  39.241  1.00  0.00     0.056 A 
HETATM   26  N   UNL     1      35.623  14.253  38.829  1.00  0.00    -0.261 NA
HETATM   27  C   UNL     1      34.465  13.674  39.214  1.00  0.00     0.117 A 
HETATM   28  C   UNL     1      34.391  12.524  39.985  1.00  0.00     0.019 A 
HETATM   29  C   UNL     1      35.584  11.930  40.383  1.00  0.00     0.004 A 
HETATM   30  C   UNL     1      36.796  12.498  40.006  1.00  0.00     0.031 A 
ENDBRANCH  24  25
ENDBRANCH   5  23
TORSDOF 5
