REMARK VINA RESULT:      -7.5      0.000      0.000
REMARK  5 active torsions:
REMARK  status: ('A' for Active; 'I' for Inactive)
REMARK    1  A    between atoms: S_1  and  C_11 
REMARK    2  A    between atoms: S_1  and  C_14 
REMARK       I    between atoms: N_5  and  C_21 
REMARK    3  A    between atoms: C_9  and  C_15 
REMARK    4  A    between atoms: C_16  and  C_21 
REMARK    5  A    between atoms: C_18  and  C_23 
ROOT
HETATM    1  N   UNL     1      40.910  17.043  38.437  1.00  0.00    -0.277 N 
HETATM    2  N   UNL     1      40.129  16.211  39.147  1.00  0.00    -0.174 NA
HETATM    3  C   UNL     1      39.074  16.925  37.245  1.00  0.00     0.022 A 
HETATM    4  C   UNL     1      40.336  17.507  37.285  1.00  0.00     0.064 A 
HETATM    5  C   UNL     1      39.012  16.142  38.418  1.00  0.00     0.089 A 
HETATM    6  C   UNL     1      40.808  18.370  36.293  1.00  0.00     0.051 A 
HETATM    7  C   UNL     1      39.947  18.640  35.226  1.00  0.00     0.007 A 
HETATM    8  C   UNL     1      38.220  17.206  36.165  1.00  0.00     0.017 A 
HETATM    9  C   UNL     1      38.674  18.069  35.160  1.00  0.00     0.020 A 
HETATM   10  H   UNL     1      41.832  17.256  38.798  1.00  0.00     0.189 HD
ENDROOT
BRANCH   7  11
HETATM   11  S   UNL     1      40.487  19.736  33.923  1.00  0.00    -0.089 SA
BRANCH  11  12
HETATM   12  C   UNL     1      39.784  21.288  34.464  1.00  0.00     0.021 A 
HETATM   13  C   UNL     1      38.682  21.863  33.825  1.00  0.00     0.049 A 
HETATM   14  C   UNL     1      38.166  23.076  34.281  1.00  0.00     0.018 A 
HETATM   15  C   UNL     1      38.748  23.717  35.374  1.00  0.00     0.001 A 
HETATM   16  C   UNL     1      39.849  23.144  36.013  1.00  0.00     0.001 A 
HETATM   17  C   UNL     1      40.365  21.932  35.557  1.00  0.00     0.020 A 
BRANCH  13  18
HETATM   18  C   UNL     1      38.034  21.237  32.679  1.00  0.00     0.252 C 
HETATM   19  O   UNL     1      37.147  20.385  32.848  1.00  0.00    -0.268 OA
HETATM   20  N   UNL     1      38.444  21.663  31.412  1.00  0.00    -0.361 N 
HETATM   21  C   UNL     1      37.880  21.156  30.181  1.00  0.00     0.149 C 
HETATM   22  H   UNL     1      39.148  22.391  31.344  1.00  0.00     0.162 HD
ENDBRANCH  13  18
ENDBRANCH  11  12
ENDBRANCH   7  11
BRANCH   5  23
HETATM   23  C   UNL     1      37.892  15.358  38.798  1.00  0.00     0.036 C 
HETATM   24  C   UNL     1      37.881  14.065  39.220  1.00  0.00     0.034 C 
BRANCH  24  25
HETATM   25  C   UNL     1      36.677  13.300  39.591  1.00  0.00     0.056 A 
HETATM   26  N   UNL     1      35.512  13.839  39.193  1.00  0.00    -0.261 NA
HETATM   27  C   UNL     1      34.402  13.145  39.529  1.00  0.00     0.117 A 
HETATM   28  C   UNL     1      34.417  11.953  40.237  1.00  0.00     0.019 A 
HETATM   29  C   UNL     1      35.651  11.441  40.623  1.00  0.00     0.004 A 
HETATM   30  C   UNL     1      36.815  12.128  40.296  1.00  0.00     0.031 A 
ENDBRANCH  24  25
ENDBRANCH   5  23
TORSDOF 5
