REMARK VINA RESULT:      -7.8      2.229      3.095
REMARK  5 active torsions:
REMARK  status: ('A' for Active; 'I' for Inactive)
REMARK    1  A    between atoms: S_1  and  C_11 
REMARK    2  A    between atoms: S_1  and  C_14 
REMARK       I    between atoms: N_5  and  C_21 
REMARK    3  A    between atoms: C_9  and  C_15 
REMARK    4  A    between atoms: C_16  and  C_21 
REMARK    5  A    between atoms: C_18  and  C_23 
ROOT
HETATM    1  N   UNL     1      34.069   6.837  50.779  1.00  0.00    -0.277 N 
HETATM    2  N   UNL     1      33.580   7.379  49.651  1.00  0.00    -0.174 NA
HETATM    3  C   UNL     1      35.573   6.319  49.270  1.00  0.00     0.022 A 
HETATM    4  C   UNL     1      35.264   6.187  50.619  1.00  0.00     0.064 A 
HETATM    5  C   UNL     1      34.498   7.061  48.734  1.00  0.00     0.089 A 
HETATM    6  C   UNL     1      36.081   5.507  51.525  1.00  0.00     0.051 A 
HETATM    7  C   UNL     1      37.257   4.946  51.020  1.00  0.00     0.007 A 
HETATM    8  C   UNL     1      36.759   5.748  48.777  1.00  0.00     0.017 A 
HETATM    9  C   UNL     1      37.593   5.063  49.670  1.00  0.00     0.020 A 
HETATM   10  H   UNL     1      33.536   6.949  51.632  1.00  0.00     0.189 HD
ENDROOT
BRANCH   7  11
HETATM   11  S   UNL     1      38.348   4.063  52.124  1.00  0.00    -0.089 SA
BRANCH  11  12
HETATM   12  C   UNL     1      37.959   2.369  51.713  1.00  0.00     0.021 A 
HETATM   13  C   UNL     1      37.083   1.603  52.486  1.00  0.00     0.049 A 
HETATM   14  C   UNL     1      36.807   0.283  52.128  1.00  0.00     0.018 A 
HETATM   15  C   UNL     1      37.406  -0.274  50.999  1.00  0.00     0.001 A 
HETATM   16  C   UNL     1      38.282   0.489  50.226  1.00  0.00     0.001 A 
HETATM   17  C   UNL     1      38.558   1.808  50.584  1.00  0.00     0.020 A 
BRANCH  13  18
HETATM   18  C   UNL     1      36.429   2.134  53.676  1.00  0.00     0.252 C 
HETATM   19  O   UNL     1      36.992   2.075  54.780  1.00  0.00    -0.268 OA
HETATM   20  N   UNL     1      35.173   2.720  53.497  1.00  0.00    -0.361 N 
HETATM   21  C   UNL     1      34.409   3.312  54.573  1.00  0.00     0.149 C 
HETATM   22  H   UNL     1      34.784   2.769  52.560  1.00  0.00     0.162 HD
ENDBRANCH  13  18
ENDBRANCH  11  12
ENDBRANCH   7  11
BRANCH   5  23
HETATM   23  C   UNL     1      34.388   7.438  47.370  1.00  0.00     0.036 C 
HETATM   24  C   UNL     1      34.774   8.606  46.793  1.00  0.00     0.034 C 
BRANCH  24  25
HETATM   25  C   UNL     1      34.619   8.943  45.366  1.00  0.00     0.056 A 
HETATM   26  N   UNL     1      35.444   9.902  44.912  1.00  0.00    -0.261 NA
HETATM   27  C   UNL     1      35.309  10.218  43.605  1.00  0.00     0.117 A 
HETATM   28  C   UNL     1      34.393   9.621  42.753  1.00  0.00     0.019 A 
HETATM   29  C   UNL     1      33.564   8.635  43.277  1.00  0.00     0.004 A 
HETATM   30  C   UNL     1      33.674   8.283  44.617  1.00  0.00     0.031 A 
ENDBRANCH  24  25
ENDBRANCH   5  23
TORSDOF 5
