REMARK VINA RESULT:      -7.7     12.880     19.163
REMARK  5 active torsions:
REMARK  status: ('A' for Active; 'I' for Inactive)
REMARK    1  A    between atoms: S_1  and  C_11 
REMARK    2  A    between atoms: S_1  and  C_14 
REMARK       I    between atoms: N_5  and  C_21 
REMARK    3  A    between atoms: C_9  and  C_15 
REMARK    4  A    between atoms: C_16  and  C_21 
REMARK    5  A    between atoms: C_18  and  C_23 
ROOT
HETATM    1  N   UNL     1      41.726  16.894  37.656  1.00  0.00    -0.277 N 
HETATM    2  N   UNL     1      41.081  15.969  38.388  1.00  0.00    -0.174 NA
HETATM    3  C   UNL     1      39.697  16.909  36.825  1.00  0.00     0.022 A 
HETATM    4  C   UNL     1      40.951  17.496  36.701  1.00  0.00     0.064 A 
HETATM    5  C   UNL     1      39.847  15.981  37.879  1.00  0.00     0.089 A 
HETATM    6  C   UNL     1      41.240  18.484  35.758  1.00  0.00     0.051 A 
HETATM    7  C   UNL     1      40.197  18.880  34.915  1.00  0.00     0.007 A 
HETATM    8  C   UNL     1      38.659  17.317  35.970  1.00  0.00     0.017 A 
HETATM    9  C   UNL     1      38.928  18.308  35.018  1.00  0.00     0.020 A 
HETATM   10  H   UNL     1      42.702  17.069  37.861  1.00  0.00     0.189 HD
ENDROOT
BRANCH   7  11
HETATM   11  S   UNL     1      40.497  20.140  33.686  1.00  0.00    -0.089 SA
BRANCH  11  12
HETATM   12  C   UNL     1      39.857  21.589  34.513  1.00  0.00     0.021 A 
HETATM   13  C   UNL     1      38.732  22.272  34.045  1.00  0.00     0.049 A 
HETATM   14  C   UNL     1      38.266  23.399  34.722  1.00  0.00     0.018 A 
HETATM   15  C   UNL     1      38.923  23.846  35.868  1.00  0.00     0.001 A 
HETATM   16  C   UNL     1      40.047  23.166  36.338  1.00  0.00     0.001 A 
HETATM   17  C   UNL     1      40.513  22.039  35.660  1.00  0.00     0.020 A 
BRANCH  13  18
HETATM   18  C   UNL     1      38.006  21.849  32.853  1.00  0.00     0.252 C 
HETATM   19  O   UNL     1      38.406  22.179  31.725  1.00  0.00    -0.268 OA
HETATM   20  N   UNL     1      36.878  21.048  33.052  1.00  0.00    -0.361 N 
HETATM   21  C   UNL     1      36.069  20.530  31.972  1.00  0.00     0.149 C 
HETATM   22  H   UNL     1      36.627  20.782  34.000  1.00  0.00     0.162 HD
ENDBRANCH  13  18
ENDBRANCH  11  12
ENDBRANCH   7  11
BRANCH   5  23
HETATM   23  C   UNL     1      38.807  15.142  38.359  1.00  0.00     0.036 C 
HETATM   24  C   UNL     1      37.466  15.353  38.294  1.00  0.00     0.034 C 
BRANCH  24  25
HETATM   25  C   UNL     1      36.434  14.445  38.826  1.00  0.00     0.056 A 
HETATM   26  N   UNL     1      35.170  14.885  38.711  1.00  0.00    -0.261 NA
HETATM   27  C   UNL     1      34.217  14.059  39.197  1.00  0.00     0.117 A 
HETATM   28  C   UNL     1      34.480  12.831  39.783  1.00  0.00     0.019 A 
HETATM   29  C   UNL     1      35.807  12.425  39.875  1.00  0.00     0.004 A 
HETATM   30  C   UNL     1      36.815  13.248  39.387  1.00  0.00     0.031 A 
ENDBRANCH  24  25
ENDBRANCH   5  23
TORSDOF 5
