REMARK VINA RESULT:      -5.7     13.096     14.174
REMARK  5 active torsions:
REMARK  status: ('A' for Active; 'I' for Inactive)
REMARK    1  A    between atoms: S_1  and  C_11 
REMARK    2  A    between atoms: S_1  and  C_14 
REMARK       I    between atoms: N_5  and  C_21 
REMARK    3  A    between atoms: C_9  and  C_15 
REMARK    4  A    between atoms: C_16  and  C_21 
REMARK    5  A    between atoms: C_18  and  C_23 
ROOT
HETATM    1  N   UNL     1      38.267  20.150  32.488  1.00  0.00    -0.277 N 
HETATM    2  N   UNL     1      38.474  18.972  33.100  1.00  0.00    -0.174 NA
HETATM    3  C   UNL     1      38.812  20.724  34.533  1.00  0.00     0.022 A 
HETATM    4  C   UNL     1      38.454  21.242  33.293  1.00  0.00     0.064 A 
HETATM    5  C   UNL     1      38.805  19.325  34.344  1.00  0.00     0.089 A 
HETATM    6  C   UNL     1      38.341  22.611  33.044  1.00  0.00     0.051 A 
HETATM    7  C   UNL     1      38.607  23.474  34.111  1.00  0.00     0.007 A 
HETATM    8  C   UNL     1      39.076  21.604  35.596  1.00  0.00     0.017 A 
HETATM    9  C   UNL     1      38.968  22.982  35.366  1.00  0.00     0.020 A 
HETATM   10  H   UNL     1      37.999  20.141  31.512  1.00  0.00     0.189 HD
ENDROOT
BRANCH   7  11
HETATM   11  S   UNL     1      38.481  25.238  33.860  1.00  0.00    -0.089 SA
BRANCH  11  12
HETATM   12  C   UNL     1      38.174  25.316  32.102  1.00  0.00     0.021 A 
HETATM   13  C   UNL     1      36.882  25.421  31.581  1.00  0.00     0.049 A 
HETATM   14  C   UNL     1      36.688  25.479  30.201  1.00  0.00     0.018 A 
HETATM   15  C   UNL     1      37.783  25.432  29.339  1.00  0.00     0.001 A 
HETATM   16  C   UNL     1      39.074  25.326  29.857  1.00  0.00     0.001 A 
HETATM   17  C   UNL     1      39.268  25.268  31.237  1.00  0.00     0.020 A 
BRANCH  13  18
HETATM   18  C   UNL     1      35.701  25.475  32.435  1.00  0.00     0.252 C 
HETATM   19  O   UNL     1      35.370  26.538  32.981  1.00  0.00    -0.268 OA
HETATM   20  N   UNL     1      34.971  24.292  32.576  1.00  0.00    -0.361 N 
HETATM   21  C   UNL     1      33.765  24.190  33.369  1.00  0.00     0.149 C 
HETATM   22  H   UNL     1      35.275  23.464  32.071  1.00  0.00     0.162 HD
ENDBRANCH  13  18
ENDBRANCH  11  12
ENDBRANCH   7  11
BRANCH   5  23
HETATM   23  C   UNL     1      39.114  18.379  35.357  1.00  0.00     0.036 C 
HETATM   24  C   UNL     1      38.287  17.459  35.920  1.00  0.00     0.034 C 
BRANCH  24  25
HETATM   25  C   UNL     1      38.667  16.509  36.981  1.00  0.00     0.056 A 
HETATM   26  N   UNL     1      39.989  16.326  37.139  1.00  0.00    -0.261 NA
HETATM   27  C   UNL     1      40.348  15.456  38.109  1.00  0.00     0.117 A 
HETATM   28  C   UNL     1      39.446  14.774  38.911  1.00  0.00     0.019 A 
HETATM   29  C   UNL     1      38.090  15.002  38.704  1.00  0.00     0.004 A 
HETATM   30  C   UNL     1      37.683  15.890  37.715  1.00  0.00     0.031 A 
ENDBRANCH  24  25
ENDBRANCH   5  23
TORSDOF 5
