REMARK VINA RESULT:      -6.0     13.165     14.308
REMARK  5 active torsions:
REMARK  status: ('A' for Active; 'I' for Inactive)
REMARK    1  A    between atoms: S_1  and  C_11 
REMARK    2  A    between atoms: S_1  and  C_14 
REMARK       I    between atoms: N_5  and  C_21 
REMARK    3  A    between atoms: C_9  and  C_15 
REMARK    4  A    between atoms: C_16  and  C_21 
REMARK    5  A    between atoms: C_18  and  C_23 
ROOT
HETATM    1  N   UNL     1      26.610  15.924  35.972  1.00  0.00    -0.277 N 
HETATM    2  N   UNL     1      26.791  16.307  37.247  1.00  0.00    -0.174 NA
HETATM    3  C   UNL     1      25.034  17.416  36.287  1.00  0.00     0.022 A 
HETATM    4  C   UNL     1      25.571  16.552  35.339  1.00  0.00     0.064 A 
HETATM    5  C   UNL     1      25.830  17.215  37.435  1.00  0.00     0.089 A 
HETATM    6  C   UNL     1      25.066  16.437  34.042  1.00  0.00     0.051 A 
HETATM    7  C   UNL     1      23.971  17.242  33.713  1.00  0.00     0.007 A 
HETATM    8  C   UNL     1      23.933  18.218  35.942  1.00  0.00     0.017 A 
HETATM    9  C   UNL     1      23.413  18.118  34.646  1.00  0.00     0.020 A 
HETATM   10  H   UNL     1      27.234  15.224  35.589  1.00  0.00     0.189 HD
ENDROOT
BRANCH   7  11
HETATM   11  S   UNL     1      23.277  17.145  32.071  1.00  0.00    -0.089 SA
BRANCH  11  12
HETATM   12  C   UNL     1      24.637  17.756  31.085  1.00  0.00     0.021 A 
HETATM   13  C   UNL     1      24.804  19.117  30.818  1.00  0.00     0.049 A 
HETATM   14  C   UNL     1      25.880  19.549  30.043  1.00  0.00     0.018 A 
HETATM   15  C   UNL     1      26.790  18.624  29.533  1.00  0.00     0.001 A 
HETATM   16  C   UNL     1      26.625  17.264  29.798  1.00  0.00     0.001 A 
HETATM   17  C   UNL     1      25.549  16.832  30.573  1.00  0.00     0.020 A 
BRANCH  13  18
HETATM   18  C   UNL     1      23.884  20.128  31.325  1.00  0.00     0.252 C 
HETATM   19  O   UNL     1      22.800  20.332  30.755  1.00  0.00    -0.268 OA
HETATM   20  N   UNL     1      24.275  20.816  32.476  1.00  0.00    -0.361 N 
HETATM   21  C   UNL     1      23.463  21.829  33.114  1.00  0.00     0.149 C 
HETATM   22  H   UNL     1      25.159  20.574  32.916  1.00  0.00     0.162 HD
ENDBRANCH  13  18
ENDBRANCH  11  12
ENDBRANCH   7  11
BRANCH   5  23
HETATM   23  C   UNL     1      25.645  17.896  38.667  1.00  0.00     0.036 C 
HETATM   24  C   UNL     1      26.245  19.041  39.086  1.00  0.00     0.034 C 
BRANCH  24  25
HETATM   25  C   UNL     1      26.017  19.694  40.388  1.00  0.00     0.056 A 
HETATM   26  N   UNL     1      25.537  18.892  41.354  1.00  0.00    -0.261 NA
HETATM   27  C   UNL     1      25.325  19.482  42.551  1.00  0.00     0.117 A 
HETATM   28  C   UNL     1      25.570  20.822  42.811  1.00  0.00     0.019 A 
HETATM   29  C   UNL     1      26.067  21.605  41.774  1.00  0.00     0.004 A 
HETATM   30  C   UNL     1      26.298  21.033  40.528  1.00  0.00     0.031 A 
ENDBRANCH  24  25
ENDBRANCH   5  23
TORSDOF 5
