REMARK VINA RESULT:      -7.7      3.900      5.847
REMARK  5 active torsions:
REMARK  status: ('A' for Active; 'I' for Inactive)
REMARK    1  A    between atoms: S_1  and  C_11 
REMARK    2  A    between atoms: S_1  and  C_14 
REMARK       I    between atoms: N_5  and  C_21 
REMARK    3  A    between atoms: C_9  and  C_15 
REMARK    4  A    between atoms: C_16  and  C_21 
REMARK    5  A    between atoms: C_18  and  C_23 
ROOT
HETATM    1  N   UNL     1      34.868   3.723  53.625  1.00  0.00    -0.277 N 
HETATM    2  N   UNL     1      34.378   4.973  53.693  1.00  0.00    -0.174 NA
HETATM    3  C   UNL     1      35.314   4.555  51.646  1.00  0.00     0.022 A 
HETATM    4  C   UNL     1      35.444   3.410  52.423  1.00  0.00     0.064 A 
HETATM    5  C   UNL     1      34.651   5.476  52.486  1.00  0.00     0.089 A 
HETATM    6  C   UNL     1      36.054   2.241  51.962  1.00  0.00     0.051 A 
HETATM    7  C   UNL     1      36.547   2.258  50.654  1.00  0.00     0.007 A 
HETATM    8  C   UNL     1      35.814   4.556  50.333  1.00  0.00     0.017 A 
HETATM    9  C   UNL     1      36.430   3.394  49.851  1.00  0.00     0.020 A 
HETATM   10  H   UNL     1      34.778   3.130  54.441  1.00  0.00     0.189 HD
ENDROOT
BRANCH   7  11
HETATM   11  S   UNL     1      37.339   0.797  50.000  1.00  0.00    -0.089 SA
BRANCH  11  12
HETATM   12  C   UNL     1      38.764   1.510  49.190  1.00  0.00     0.021 A 
HETATM   13  C   UNL     1      39.945   1.788  49.881  1.00  0.00     0.049 A 
HETATM   14  C   UNL     1      41.033   2.345  49.208  1.00  0.00     0.018 A 
HETATM   15  C   UNL     1      40.942   2.626  47.846  1.00  0.00     0.001 A 
HETATM   16  C   UNL     1      39.763   2.350  47.153  1.00  0.00     0.001 A 
HETATM   17  C   UNL     1      38.675   1.793  47.826  1.00  0.00     0.020 A 
BRANCH  13  18
HETATM   18  C   UNL     1      40.096   1.515  51.305  1.00  0.00     0.252 C 
HETATM   19  O   UNL     1      40.461   0.394  51.693  1.00  0.00    -0.268 OA
HETATM   20  N   UNL     1      39.834   2.571  52.182  1.00  0.00    -0.361 N 
HETATM   21  C   UNL     1      39.962   2.465  53.618  1.00  0.00     0.149 C 
HETATM   22  H   UNL     1      39.575   3.475  51.796  1.00  0.00     0.162 HD
ENDBRANCH  13  18
ENDBRANCH  11  12
ENDBRANCH   7  11
BRANCH   5  23
HETATM   23  C   UNL     1      34.303   6.799  52.107  1.00  0.00     0.036 C 
HETATM   24  C   UNL     1      33.801   7.221  50.916  1.00  0.00     0.034 C 
BRANCH  24  25
HETATM   25  C   UNL     1      33.471   8.618  50.579  1.00  0.00     0.056 A 
HETATM   26  N   UNL     1      33.555   8.927  49.274  1.00  0.00    -0.261 NA
HETATM   27  C   UNL     1      33.256  10.206  48.956  1.00  0.00     0.117 A 
HETATM   28  C   UNL     1      32.882  11.168  49.881  1.00  0.00     0.019 A 
HETATM   29  C   UNL     1      32.810  10.793  51.218  1.00  0.00     0.004 A 
HETATM   30  C   UNL     1      33.112   9.486  51.584  1.00  0.00     0.031 A 
ENDBRANCH  24  25
ENDBRANCH   5  23
TORSDOF 5
