REMARK VINA RESULT:      -5.2      4.267      6.759
REMARK  5 active torsions:
REMARK  status: ('A' for Active; 'I' for Inactive)
REMARK    1  A    between atoms: S_1  and  C_11 
REMARK    2  A    between atoms: S_1  and  C_14 
REMARK       I    between atoms: N_5  and  C_21 
REMARK    3  A    between atoms: C_9  and  C_15 
REMARK    4  A    between atoms: C_16  and  C_21 
REMARK    5  A    between atoms: C_18  and  C_23 
ROOT
HETATM    1  N   UNL     1      26.482  20.456  39.737  1.00  0.00    -0.277 N 
HETATM    2  N   UNL     1      26.604  21.431  40.654  1.00  0.00    -0.174 NA
HETATM    3  C   UNL     1      24.423  20.779  40.418  1.00  0.00     0.022 A 
HETATM    4  C   UNL     1      25.198  20.021  39.548  1.00  0.00     0.064 A 
HETATM    5  C   UNL     1      25.349  21.625  41.066  1.00  0.00     0.089 A 
HETATM    6  C   UNL     1      24.662  19.045  38.705  1.00  0.00     0.051 A 
HETATM    7  C   UNL     1      23.279  18.846  38.763  1.00  0.00     0.007 A 
HETATM    8  C   UNL     1      23.034  20.568  40.465  1.00  0.00     0.017 A 
HETATM    9  C   UNL     1      22.477  19.594  39.627  1.00  0.00     0.020 A 
HETATM   10  H   UNL     1      27.320  20.130  39.272  1.00  0.00     0.189 HD
ENDROOT
BRANCH   7  11
HETATM   11  S   UNL     1      22.528  17.614  37.711  1.00  0.00    -0.089 SA
BRANCH  11  12
HETATM   12  C   UNL     1      23.973  16.777  37.074  1.00  0.00     0.021 A 
HETATM   13  C   UNL     1      24.591  15.735  37.769  1.00  0.00     0.049 A 
HETATM   14  C   UNL     1      25.718  15.110  37.234  1.00  0.00     0.018 A 
HETATM   15  C   UNL     1      26.229  15.525  36.005  1.00  0.00     0.001 A 
HETATM   16  C   UNL     1      25.614  16.566  35.309  1.00  0.00     0.001 A 
HETATM   17  C   UNL     1      24.488  17.191  35.844  1.00  0.00     0.020 A 
BRANCH  13  18
HETATM   18  C   UNL     1      24.099  15.260  39.057  1.00  0.00     0.252 C 
HETATM   19  O   UNL     1      23.289  14.322  39.111  1.00  0.00    -0.268 OA
HETATM   20  N   UNL     1      24.601  15.895  40.196  1.00  0.00    -0.361 N 
HETATM   21  C   UNL     1      24.230  15.523  41.544  1.00  0.00     0.149 C 
HETATM   22  H   UNL     1      25.291  16.632  40.083  1.00  0.00     0.162 HD
ENDBRANCH  13  18
ENDBRANCH  11  12
ENDBRANCH   7  11
BRANCH   5  23
HETATM   23  C   UNL     1      25.002  22.584  42.053  1.00  0.00     0.036 C 
HETATM   24  C   UNL     1      24.366  23.773  41.875  1.00  0.00     0.034 C 
BRANCH  24  25
HETATM   25  C   UNL     1      24.045  24.735  42.945  1.00  0.00     0.056 A 
HETATM   26  N   UNL     1      23.289  24.249  43.944  1.00  0.00    -0.261 NA
HETATM   27  C   UNL     1      22.988  25.124  44.928  1.00  0.00     0.117 A 
HETATM   28  C   UNL     1      23.408  26.445  44.947  1.00  0.00     0.019 A 
HETATM   29  C   UNL     1      24.189  26.894  43.888  1.00  0.00     0.004 A 
HETATM   30  C   UNL     1      24.518  26.023  42.856  1.00  0.00     0.031 A 
ENDBRANCH  24  25
ENDBRANCH   5  23
TORSDOF 5
