REMARK VINA RESULT:      -5.9      0.000      0.000
REMARK  5 active torsions:
REMARK  status: ('A' for Active; 'I' for Inactive)
REMARK    1  A    between atoms: S_1  and  C_11 
REMARK    2  A    between atoms: S_1  and  C_14 
REMARK       I    between atoms: N_5  and  C_21 
REMARK    3  A    between atoms: C_9  and  C_15 
REMARK    4  A    between atoms: C_16  and  C_21 
REMARK    5  A    between atoms: C_18  and  C_23 
ROOT
HETATM    1  N   UNL     1      26.717  15.879  35.904  1.00  0.00    -0.277 N 
HETATM    2  N   UNL     1      26.918  16.246  37.181  1.00  0.00    -0.174 NA
HETATM    3  C   UNL     1      25.135  17.354  36.266  1.00  0.00     0.022 A 
HETATM    4  C   UNL     1      25.663  16.508  35.297  1.00  0.00     0.064 A 
HETATM    5  C   UNL     1      25.952  17.143  37.398  1.00  0.00     0.089 A 
HETATM    6  C   UNL     1      25.138  16.407  34.007  1.00  0.00     0.051 A 
HETATM    7  C   UNL     1      24.031  17.207  33.709  1.00  0.00     0.007 A 
HETATM    8  C   UNL     1      24.022  18.151  35.951  1.00  0.00     0.017 A 
HETATM    9  C   UNL     1      23.481  18.065  34.663  1.00  0.00     0.020 A 
HETATM   10  H   UNL     1      27.341  15.191  35.501  1.00  0.00     0.189 HD
ENDROOT
BRANCH   7  11
HETATM   11  S   UNL     1      23.309  17.127  32.077  1.00  0.00    -0.089 SA
BRANCH  11  12
HETATM   12  C   UNL     1      24.646  17.766  31.077  1.00  0.00     0.021 A 
HETATM   13  C   UNL     1      24.798  19.132  30.831  1.00  0.00     0.049 A 
HETATM   14  C   UNL     1      25.857  19.586  30.044  1.00  0.00     0.018 A 
HETATM   15  C   UNL     1      26.765  18.677  29.502  1.00  0.00     0.001 A 
HETATM   16  C   UNL     1      26.615  17.312  29.746  1.00  0.00     0.001 A 
HETATM   17  C   UNL     1      25.556  16.857  30.533  1.00  0.00     0.020 A 
BRANCH  13  18
HETATM   18  C   UNL     1      23.880  20.127  31.372  1.00  0.00     0.252 C 
HETATM   19  O   UNL     1      22.783  20.329  30.828  1.00  0.00    -0.268 OA
HETATM   20  N   UNL     1      24.289  20.802  32.525  1.00  0.00    -0.361 N 
HETATM   21  C   UNL     1      23.482  21.798  33.194  1.00  0.00     0.149 C 
HETATM   22  H   UNL     1      25.184  20.562  32.942  1.00  0.00     0.162 HD
ENDBRANCH  13  18
ENDBRANCH  11  12
ENDBRANCH   7  11
BRANCH   5  23
HETATM   23  C   UNL     1      25.782  17.805  38.642  1.00  0.00     0.036 C 
HETATM   24  C   UNL     1      26.146  19.073  38.970  1.00  0.00     0.034 C 
BRANCH  24  25
HETATM   25  C   UNL     1      25.952  19.700  40.290  1.00  0.00     0.056 A 
HETATM   26  N   UNL     1      25.438  18.896  41.236  1.00  0.00    -0.261 NA
HETATM   27  C   UNL     1      25.255  19.462  42.449  1.00  0.00     0.117 A 
HETATM   28  C   UNL     1      25.563  20.782  42.743  1.00  0.00     0.019 A 
HETATM   29  C   UNL     1      26.092  21.569  41.726  1.00  0.00     0.004 A 
HETATM   30  C   UNL     1      26.294  21.021  40.465  1.00  0.00     0.031 A 
ENDBRANCH  24  25
ENDBRANCH   5  23
TORSDOF 5
