REMARK VINA RESULT:      -6.0     12.921     13.914
REMARK  5 active torsions:
REMARK  status: ('A' for Active; 'I' for Inactive)
REMARK    1  A    between atoms: S_1  and  C_11 
REMARK    2  A    between atoms: S_1  and  C_14 
REMARK       I    between atoms: N_5  and  C_21 
REMARK    3  A    between atoms: C_9  and  C_15 
REMARK    4  A    between atoms: C_16  and  C_21 
REMARK    5  A    between atoms: C_18  and  C_23 
ROOT
HETATM    1  N   UNL     1      26.883  15.560  35.662  1.00  0.00    -0.277 N 
HETATM    2  N   UNL     1      27.007  15.942  36.944  1.00  0.00    -0.174 NA
HETATM    3  C   UNL     1      25.368  17.131  35.877  1.00  0.00     0.022 A 
HETATM    4  C   UNL     1      25.917  16.236  34.966  1.00  0.00     0.064 A 
HETATM    5  C   UNL     1      26.083  16.898  37.071  1.00  0.00     0.089 A 
HETATM    6  C   UNL     1      25.486  16.138  33.641  1.00  0.00     0.051 A 
HETATM    7  C   UNL     1      24.454  16.994  33.244  1.00  0.00     0.007 A 
HETATM    8  C   UNL     1      24.331  17.984  35.464  1.00  0.00     0.017 A 
HETATM    9  C   UNL     1      23.885  17.902  34.139  1.00  0.00     0.020 A 
HETATM   10  H   UNL     1      27.494  14.829  35.320  1.00  0.00     0.189 HD
ENDROOT
BRANCH   7  11
HETATM   11  S   UNL     1      23.856  16.921  31.563  1.00  0.00    -0.089 SA
BRANCH  11  12
HETATM   12  C   UNL     1      24.492  18.456  30.904  1.00  0.00     0.021 A 
HETATM   13  C   UNL     1      25.587  18.491  30.038  1.00  0.00     0.049 A 
HETATM   14  C   UNL     1      26.051  19.711  29.547  1.00  0.00     0.018 A 
HETATM   15  C   UNL     1      25.422  20.898  29.921  1.00  0.00     0.001 A 
HETATM   16  C   UNL     1      24.329  20.866  30.786  1.00  0.00     0.001 A 
HETATM   17  C   UNL     1      23.865  19.646  31.277  1.00  0.00     0.020 A 
BRANCH  13  18
HETATM   18  C   UNL     1      26.282  17.281  29.613  1.00  0.00     0.252 C 
HETATM   19  O   UNL     1      26.919  16.603  30.434  1.00  0.00    -0.268 OA
HETATM   20  N   UNL     1      26.168  16.927  28.266  1.00  0.00    -0.361 N 
HETATM   21  C   UNL     1      26.777  15.745  27.698  1.00  0.00     0.149 C 
HETATM   22  H   UNL     1      25.599  17.506  27.654  1.00  0.00     0.162 HD
ENDBRANCH  13  18
ENDBRANCH  11  12
ENDBRANCH   7  11
BRANCH   5  23
HETATM   23  C   UNL     1      25.858  17.594  38.288  1.00  0.00     0.036 C 
HETATM   24  C   UNL     1      26.407  18.771  38.690  1.00  0.00     0.034 C 
BRANCH  24  25
HETATM   25  C   UNL     1      26.141  19.440  39.976  1.00  0.00     0.056 A 
HETATM   26  N   UNL     1      26.520  20.727  40.041  1.00  0.00    -0.261 NA
HETATM   27  C   UNL     1      26.281  21.348  41.218  1.00  0.00     0.117 A 
HETATM   28  C   UNL     1      25.687  20.736  42.311  1.00  0.00     0.019 A 
HETATM   29  C   UNL     1      25.315  19.402  42.188  1.00  0.00     0.004 A 
HETATM   30  C   UNL     1      25.546  18.730  40.993  1.00  0.00     0.031 A 
ENDBRANCH  24  25
ENDBRANCH   5  23
TORSDOF 5
