REMARK VINA RESULT:      -5.8      1.667      2.666
REMARK  5 active torsions:
REMARK  status: ('A' for Active; 'I' for Inactive)
REMARK    1  A    between atoms: S_1  and  C_11 
REMARK    2  A    between atoms: S_1  and  C_14 
REMARK       I    between atoms: N_5  and  C_21 
REMARK    3  A    between atoms: C_9  and  C_15 
REMARK    4  A    between atoms: C_16  and  C_21 
REMARK    5  A    between atoms: C_18  and  C_23 
ROOT
HETATM    1  N   UNL     1      26.721  15.701  35.831  1.00  0.00    -0.277 N 
HETATM    2  N   UNL     1      26.828  16.093  37.112  1.00  0.00    -0.174 NA
HETATM    3  C   UNL     1      25.199  17.269  36.013  1.00  0.00     0.022 A 
HETATM    4  C   UNL     1      25.762  16.368  35.117  1.00  0.00     0.064 A 
HETATM    5  C   UNL     1      25.900  17.048  37.219  1.00  0.00     0.089 A 
HETATM    6  C   UNL     1      25.348  16.257  33.788  1.00  0.00     0.051 A 
HETATM    7  C   UNL     1      24.320  17.107  33.371  1.00  0.00     0.007 A 
HETATM    8  C   UNL     1      24.166  18.116  35.580  1.00  0.00     0.017 A 
HETATM    9  C   UNL     1      23.737  18.022  34.250  1.00  0.00     0.020 A 
HETATM   10  H   UNL     1      27.338  14.968  35.503  1.00  0.00     0.189 HD
ENDROOT
BRANCH   7  11
HETATM   11  S   UNL     1      23.743  17.019  31.683  1.00  0.00    -0.089 SA
BRANCH  11  12
HETATM   12  C   UNL     1      24.400  18.540  31.014  1.00  0.00     0.021 A 
HETATM   13  C   UNL     1      25.492  18.554  30.143  1.00  0.00     0.049 A 
HETATM   14  C   UNL     1      25.973  19.765  29.645  1.00  0.00     0.018 A 
HETATM   15  C   UNL     1      25.364  20.963  30.015  1.00  0.00     0.001 A 
HETATM   16  C   UNL     1      24.273  20.952  30.884  1.00  0.00     0.001 A 
HETATM   17  C   UNL     1      23.793  19.742  31.383  1.00  0.00     0.020 A 
BRANCH  13  18
HETATM   18  C   UNL     1      26.167  17.332  29.723  1.00  0.00     0.252 C 
HETATM   19  O   UNL     1      26.721  16.601  30.560  1.00  0.00    -0.268 OA
HETATM   20  N   UNL     1      26.131  17.029  28.359  1.00  0.00    -0.361 N 
HETATM   21  C   UNL     1      26.732  15.842  27.791  1.00  0.00     0.149 C 
HETATM   22  H   UNL     1      25.628  17.650  27.732  1.00  0.00     0.162 HD
ENDBRANCH  13  18
ENDBRANCH  11  12
ENDBRANCH   7  11
BRANCH   5  23
HETATM   23  C   UNL     1      25.658  17.754  38.426  1.00  0.00     0.036 C 
HETATM   24  C   UNL     1      26.354  18.807  38.932  1.00  0.00     0.034 C 
BRANCH  24  25
HETATM   25  C   UNL     1      26.058  19.492  40.203  1.00  0.00     0.056 A 
HETATM   26  N   UNL     1      25.551  18.709  41.171  1.00  0.00    -0.261 NA
HETATM   27  C   UNL     1      25.275  19.328  42.340  1.00  0.00     0.117 A 
HETATM   28  C   UNL     1      25.485  20.679  42.570  1.00  0.00     0.019 A 
HETATM   29  C   UNL     1      26.012  21.441  41.534  1.00  0.00     0.004 A 
HETATM   30  C   UNL     1      26.307  20.839  40.316  1.00  0.00     0.031 A 
ENDBRANCH  24  25
ENDBRANCH   5  23
TORSDOF 5
