REMARK VINA RESULT:      -8.2      2.603      3.566
REMARK  5 active torsions:
REMARK  status: ('A' for Active; 'I' for Inactive)
REMARK    1  A    between atoms: S_1  and  C_11 
REMARK    2  A    between atoms: S_1  and  C_14 
REMARK       I    between atoms: N_5  and  C_21 
REMARK    3  A    between atoms: C_9  and  C_15 
REMARK    4  A    between atoms: C_16  and  C_21 
REMARK    5  A    between atoms: C_18  and  C_23 
ROOT
HETATM    1  N   UNL     1      33.503   8.261  50.989  1.00  0.00    -0.277 N 
HETATM    2  N   UNL     1      33.469   9.053  49.904  1.00  0.00    -0.174 NA
HETATM    3  C   UNL     1      34.646   7.132  49.495  1.00  0.00     0.022 A 
HETATM    4  C   UNL     1      34.195   7.093  50.810  1.00  0.00     0.064 A 
HETATM    5  C   UNL     1      34.165   8.362  48.997  1.00  0.00     0.089 A 
HETATM    6  C   UNL     1      34.457   6.026  51.672  1.00  0.00     0.051 A 
HETATM    7  C   UNL     1      35.210   4.966  51.160  1.00  0.00     0.007 A 
HETATM    8  C   UNL     1      35.402   6.059  48.994  1.00  0.00     0.017 A 
HETATM    9  C   UNL     1      35.676   4.980  49.843  1.00  0.00     0.020 A 
HETATM   10  H   UNL     1      33.033   8.578  51.827  1.00  0.00     0.189 HD
ENDROOT
BRANCH   7  11
HETATM   11  S   UNL     1      35.582   3.570  52.210  1.00  0.00    -0.089 SA
BRANCH  11  12
HETATM   12  C   UNL     1      37.075   4.132  53.015  1.00  0.00     0.021 A 
HETATM   13  C   UNL     1      37.196   4.167  54.406  1.00  0.00     0.049 A 
HETATM   14  C   UNL     1      38.380   4.613  54.993  1.00  0.00     0.018 A 
HETATM   15  C   UNL     1      39.445   5.026  54.192  1.00  0.00     0.001 A 
HETATM   16  C   UNL     1      39.326   4.992  52.802  1.00  0.00     0.001 A 
HETATM   17  C   UNL     1      38.142   4.546  52.216  1.00  0.00     0.020 A 
BRANCH  13  18
HETATM   18  C   UNL     1      36.116   3.748  55.292  1.00  0.00     0.252 C 
HETATM   19  O   UNL     1      35.988   2.554  55.602  1.00  0.00    -0.268 OA
HETATM   20  N   UNL     1      35.272   4.751  55.776  1.00  0.00    -0.361 N 
HETATM   21  C   UNL     1      34.173   4.499  56.681  1.00  0.00     0.149 C 
HETATM   22  H   UNL     1      35.455   5.715  55.513  1.00  0.00     0.162 HD
ENDBRANCH  13  18
ENDBRANCH  11  12
ENDBRANCH   7  11
BRANCH   5  23
HETATM   23  C   UNL     1      34.387   8.832  47.676  1.00  0.00     0.036 C 
HETATM   24  C   UNL     1      34.178   8.169  46.507  1.00  0.00     0.034 C 
BRANCH  24  25
HETATM   25  C   UNL     1      34.442   8.711  45.162  1.00  0.00     0.056 A 
HETATM   26  N   UNL     1      35.398   9.654  45.102  1.00  0.00    -0.261 NA
HETATM   27  C   UNL     1      35.646  10.158  43.873  1.00  0.00     0.117 A 
HETATM   28  C   UNL     1      34.982   9.758  42.723  1.00  0.00     0.019 A 
HETATM   29  C   UNL     1      34.002   8.779  42.843  1.00  0.00     0.004 A 
HETATM   30  C   UNL     1      33.719   8.238  44.092  1.00  0.00     0.031 A 
ENDBRANCH  24  25
ENDBRANCH   5  23
TORSDOF 5
