REMARK VINA RESULT:      -8.2     12.088     18.265
REMARK  5 active torsions:
REMARK  status: ('A' for Active; 'I' for Inactive)
REMARK    1  A    between atoms: S_1  and  C_11 
REMARK    2  A    between atoms: S_1  and  C_14 
REMARK       I    between atoms: N_5  and  C_21 
REMARK    3  A    between atoms: C_9  and  C_15 
REMARK    4  A    between atoms: C_16  and  C_21 
REMARK    5  A    between atoms: C_18  and  C_23 
ROOT
HETATM    1  N   UNL     1      41.547  15.469  38.035  1.00  0.00    -0.277 N 
HETATM    2  N   UNL     1      40.653  14.766  38.751  1.00  0.00    -0.174 NA
HETATM    3  C   UNL     1      39.616  16.220  37.319  1.00  0.00     0.022 A 
HETATM    4  C   UNL     1      40.989  16.360  37.158  1.00  0.00     0.064 A 
HETATM    5  C   UNL     1      39.478  15.226  38.312  1.00  0.00     0.089 A 
HETATM    6  C   UNL     1      41.563  17.256  36.253  1.00  0.00     0.051 A 
HETATM    7  C   UNL     1      40.687  18.035  35.491  1.00  0.00     0.007 A 
HETATM    8  C   UNL     1      38.748  17.010  36.545  1.00  0.00     0.017 A 
HETATM    9  C   UNL     1      39.303  17.916  35.633  1.00  0.00     0.020 A 
HETATM   10  H   UNL     1      42.531  15.293  38.195  1.00  0.00     0.189 HD
ENDROOT
BRANCH   7  11
HETATM   11  S   UNL     1      41.354  19.203  34.316  1.00  0.00    -0.089 SA
BRANCH  11  12
HETATM   12  C   UNL     1      41.714  20.594  35.378  1.00  0.00     0.021 A 
HETATM   13  C   UNL     1      40.774  21.597  35.627  1.00  0.00     0.049 A 
HETATM   14  C   UNL     1      41.098  22.666  36.464  1.00  0.00     0.018 A 
HETATM   15  C   UNL     1      42.360  22.735  37.051  1.00  0.00     0.001 A 
HETATM   16  C   UNL     1      43.301  21.735  36.803  1.00  0.00     0.001 A 
HETATM   17  C   UNL     1      42.977  20.666  35.967  1.00  0.00     0.020 A 
BRANCH  13  18
HETATM   18  C   UNL     1      39.439  21.575  35.040  1.00  0.00     0.252 C 
HETATM   19  O   UNL     1      38.480  21.119  35.681  1.00  0.00    -0.268 OA
HETATM   20  N   UNL     1      39.307  22.108  33.755  1.00  0.00    -0.361 N 
HETATM   21  C   UNL     1      38.047  22.180  33.049  1.00  0.00     0.149 C 
HETATM   22  H   UNL     1      40.126  22.500  33.300  1.00  0.00     0.162 HD
ENDBRANCH  13  18
ENDBRANCH  11  12
ENDBRANCH   7  11
BRANCH   5  23
HETATM   23  C   UNL     1      38.234  14.753  38.804  1.00  0.00     0.036 C 
HETATM   24  C   UNL     1      37.853  13.464  39.010  1.00  0.00     0.034 C 
BRANCH  24  25
HETATM   25  C   UNL     1      36.535  13.036  39.514  1.00  0.00     0.056 A 
HETATM   26  N   UNL     1      35.490  13.751  39.063  1.00  0.00    -0.261 NA
HETATM   27  C   UNL     1      34.278  13.366  39.520  1.00  0.00     0.117 A 
HETATM   28  C   UNL     1      34.079  12.311  40.398  1.00  0.00     0.019 A 
HETATM   29  C   UNL     1      35.196  11.606  40.831  1.00  0.00     0.004 A 
HETATM   30  C   UNL     1      36.460  11.973  40.383  1.00  0.00     0.031 A 
ENDBRANCH  24  25
ENDBRANCH   5  23
TORSDOF 5
