REMARK VINA RESULT:      -5.2      6.178      8.240
REMARK  5 active torsions:
REMARK  status: ('A' for Active; 'I' for Inactive)
REMARK    1  A    between atoms: S_1  and  C_11 
REMARK    2  A    between atoms: S_1  and  C_14 
REMARK       I    between atoms: N_5  and  C_21 
REMARK    3  A    between atoms: C_9  and  C_15 
REMARK    4  A    between atoms: C_16  and  C_21 
REMARK    5  A    between atoms: C_18  and  C_23 
ROOT
HETATM    1  N   UNL     1      25.909  20.072  39.909  1.00  0.00    -0.277 N 
HETATM    2  N   UNL     1      26.218  21.180  40.603  1.00  0.00    -0.174 NA
HETATM    3  C   UNL     1      24.038  20.570  40.940  1.00  0.00     0.022 A 
HETATM    4  C   UNL     1      24.614  19.653  40.068  1.00  0.00     0.064 A 
HETATM    5  C   UNL     1      25.078  21.480  41.230  1.00  0.00     0.089 A 
HETATM    6  C   UNL     1      23.916  18.569  39.532  1.00  0.00     0.051 A 
HETATM    7  C   UNL     1      22.577  18.428  39.909  1.00  0.00     0.007 A 
HETATM    8  C   UNL     1      22.692  20.414  41.311  1.00  0.00     0.017 A 
HETATM    9  C   UNL     1      21.973  19.334  40.784  1.00  0.00     0.020 A 
HETATM   10  H   UNL     1      26.630  19.647  39.341  1.00  0.00     0.189 HD
ENDROOT
BRANCH   7  11
HETATM   11  S   UNL     1      21.625  17.064  39.260  1.00  0.00    -0.089 SA
BRANCH  11  12
HETATM   12  C   UNL     1      22.789  15.719  39.429  1.00  0.00     0.021 A 
HETATM   13  C   UNL     1      23.027  15.097  40.657  1.00  0.00     0.049 A 
HETATM   14  C   UNL     1      23.945  14.050  40.743  1.00  0.00     0.018 A 
HETATM   15  C   UNL     1      24.627  13.624  39.604  1.00  0.00     0.001 A 
HETATM   16  C   UNL     1      24.392  14.244  38.377  1.00  0.00     0.001 A 
HETATM   17  C   UNL     1      23.474  15.290  38.290  1.00  0.00     0.020 A 
BRANCH  13  18
HETATM   18  C   UNL     1      22.343  15.502  41.879  1.00  0.00     0.252 C 
HETATM   19  O   UNL     1      21.225  15.038  42.154  1.00  0.00    -0.268 OA
HETATM   20  N   UNL     1      23.016  16.400  42.711  1.00  0.00    -0.361 N 
HETATM   21  C   UNL     1      22.480  16.877  43.967  1.00  0.00     0.149 C 
HETATM   22  H   UNL     1      23.945  16.712  42.445  1.00  0.00     0.162 HD
ENDBRANCH  13  18
ENDBRANCH  11  12
ENDBRANCH   7  11
BRANCH   5  23
HETATM   23  C   UNL     1      24.944  22.600  42.091  1.00  0.00     0.036 C 
HETATM   24  C   UNL     1      24.266  23.755  41.860  1.00  0.00     0.034 C 
BRANCH  24  25
HETATM   25  C   UNL     1      24.175  24.891  42.796  1.00  0.00     0.056 A 
HETATM   26  N   UNL     1      24.873  25.983  42.439  1.00  0.00    -0.261 NA
HETATM   27  C   UNL     1      24.797  27.029  43.291  1.00  0.00     0.117 A 
HETATM   28  C   UNL     1      24.061  27.021  44.466  1.00  0.00     0.019 A 
HETATM   29  C   UNL     1      23.358  25.864  44.785  1.00  0.00     0.004 A 
HETATM   30  C   UNL     1      23.413  24.767  43.933  1.00  0.00     0.031 A 
ENDBRANCH  24  25
ENDBRANCH   5  23
TORSDOF 5
