REMARK VINA RESULT:      -8.5      1.885      2.375
REMARK  5 active torsions:
REMARK  status: ('A' for Active; 'I' for Inactive)
REMARK    1  A    between atoms: S_1  and  C_11 
REMARK    2  A    between atoms: S_1  and  C_14 
REMARK       I    between atoms: N_5  and  C_21 
REMARK    3  A    between atoms: C_9  and  C_15 
REMARK    4  A    between atoms: C_16  and  C_21 
REMARK    5  A    between atoms: C_18  and  C_23 
ROOT
HETATM    1  N   UNL     1      33.634   9.345  49.541  1.00  0.00    -0.277 N 
HETATM    2  N   UNL     1      33.339   9.639  48.263  1.00  0.00    -0.174 NA
HETATM    3  C   UNL     1      34.769   7.856  48.398  1.00  0.00     0.022 A 
HETATM    4  C   UNL     1      34.488   8.284  49.690  1.00  0.00     0.064 A 
HETATM    5  C   UNL     1      34.031   8.731  47.570  1.00  0.00     0.089 A 
HETATM    6  C   UNL     1      35.025   7.677  50.827  1.00  0.00     0.051 A 
HETATM    7  C   UNL     1      35.881   6.592  50.621  1.00  0.00     0.007 A 
HETATM    8  C   UNL     1      35.631   6.763  48.207  1.00  0.00     0.017 A 
HETATM    9  C   UNL     1      36.181   6.141  49.334  1.00  0.00     0.020 A 
HETATM   10  H   UNL     1      33.217   9.910  50.270  1.00  0.00     0.189 HD
ENDROOT
BRANCH   7  11
HETATM   11  S   UNL     1      36.604   5.769  52.032  1.00  0.00    -0.089 SA
BRANCH  11  12
HETATM   12  C   UNL     1      36.190   4.065  51.687  1.00  0.00     0.021 A 
HETATM   13  C   UNL     1      35.440   3.291  52.576  1.00  0.00     0.049 A 
HETATM   14  C   UNL     1      35.140   1.965  52.266  1.00  0.00     0.018 A 
HETATM   15  C   UNL     1      35.590   1.408  51.069  1.00  0.00     0.001 A 
HETATM   16  C   UNL     1      36.340   2.179  50.180  1.00  0.00     0.001 A 
HETATM   17  C   UNL     1      36.640   3.505  50.490  1.00  0.00     0.020 A 
BRANCH  13  18
HETATM   18  C   UNL     1      34.944   3.821  53.841  1.00  0.00     0.252 C 
HETATM   19  O   UNL     1      33.878   4.455  53.880  1.00  0.00    -0.268 OA
HETATM   20  N   UNL     1      35.710   3.557  54.979  1.00  0.00    -0.361 N 
HETATM   21  C   UNL     1      35.340   3.993  56.307  1.00  0.00     0.149 C 
HETATM   22  H   UNL     1      36.554   2.999  54.883  1.00  0.00     0.162 HD
ENDBRANCH  13  18
ENDBRANCH  11  12
ENDBRANCH   7  11
BRANCH   5  23
HETATM   23  C   UNL     1      34.015   8.668  46.152  1.00  0.00     0.036 C 
HETATM   24  C   UNL     1      34.870   9.265  45.280  1.00  0.00     0.034 C 
BRANCH  24  25
HETATM   25  C   UNL     1      34.791   9.170  43.811  1.00  0.00     0.056 A 
HETATM   26  N   UNL     1      34.655   7.924  43.325  1.00  0.00    -0.261 NA
HETATM   27  C   UNL     1      34.583   7.827  41.979  1.00  0.00     0.117 A 
HETATM   28  C   UNL     1      34.643   8.913  41.118  1.00  0.00     0.019 A 
HETATM   29  C   UNL     1      34.784  10.178  41.676  1.00  0.00     0.004 A 
HETATM   30  C   UNL     1      34.862  10.318  43.058  1.00  0.00     0.031 A 
ENDBRANCH  24  25
ENDBRANCH   5  23
TORSDOF 5
