REMARK VINA RESULT:      -5.7      8.386     11.235
REMARK  5 active torsions:
REMARK  status: ('A' for Active; 'I' for Inactive)
REMARK    1  A    between atoms: S_1  and  C_11 
REMARK    2  A    between atoms: S_1  and  C_14 
REMARK       I    between atoms: N_5  and  C_21 
REMARK    3  A    between atoms: C_9  and  C_15 
REMARK    4  A    between atoms: C_16  and  C_21 
REMARK    5  A    between atoms: C_18  and  C_23 
ROOT
HETATM    1  N   UNL     1      36.904  19.095  30.728  1.00  0.00    -0.277 N 
HETATM    2  N   UNL     1      36.416  19.980  31.613  1.00  0.00    -0.174 NA
HETATM    3  C   UNL     1      34.908  19.554  29.944  1.00  0.00     0.022 A 
HETATM    4  C   UNL     1      36.049  18.796  29.702  1.00  0.00     0.064 A 
HETATM    5  C   UNL     1      35.201  20.257  31.133  1.00  0.00     0.089 A 
HETATM    6  C   UNL     1      36.176  17.942  28.604  1.00  0.00     0.051 A 
HETATM    7  C   UNL     1      35.090  17.869  27.728  1.00  0.00     0.007 A 
HETATM    8  C   UNL     1      33.824  19.469  29.055  1.00  0.00     0.017 A 
HETATM    9  C   UNL     1      33.932  18.619  27.947  1.00  0.00     0.020 A 
HETATM   10  H   UNL     1      37.836  18.730  30.882  1.00  0.00     0.189 HD
ENDROOT
BRANCH   7  11
HETATM   11  S   UNL     1      35.186  16.797  26.303  1.00  0.00    -0.089 SA
BRANCH  11  12
HETATM   12  C   UNL     1      34.517  15.279  26.967  1.00  0.00     0.021 A 
HETATM   13  C   UNL     1      35.317  14.157  27.200  1.00  0.00     0.049 A 
HETATM   14  C   UNL     1      34.752  12.993  27.720  1.00  0.00     0.018 A 
HETATM   15  C   UNL     1      33.389  12.945  28.007  1.00  0.00     0.001 A 
HETATM   16  C   UNL     1      32.588  14.064  27.776  1.00  0.00     0.001 A 
HETATM   17  C   UNL     1      33.152  15.229  27.256  1.00  0.00     0.020 A 
BRANCH  13  18
HETATM   18  C   UNL     1      36.747  14.151  26.918  1.00  0.00     0.252 C 
HETATM   19  O   UNL     1      37.531  14.794  27.634  1.00  0.00    -0.268 OA
HETATM   20  N   UNL     1      37.173  13.376  25.835  1.00  0.00    -0.361 N 
HETATM   21  C   UNL     1      38.560  13.248  25.444  1.00  0.00     0.149 C 
HETATM   22  H   UNL     1      36.484  12.844  25.312  1.00  0.00     0.162 HD
ENDBRANCH  13  18
ENDBRANCH  11  12
ENDBRANCH   7  11
BRANCH   5  23
HETATM   23  C   UNL     1      34.312  21.165  31.765  1.00  0.00     0.036 C 
HETATM   24  C   UNL     1      33.810  22.326  31.267  1.00  0.00     0.034 C 
BRANCH  24  25
HETATM   25  C   UNL     1      32.896  23.235  31.981  1.00  0.00     0.056 A 
HETATM   26  N   UNL     1      31.588  23.027  31.754  1.00  0.00    -0.261 NA
HETATM   27  C   UNL     1      30.742  23.857  32.404  1.00  0.00     0.117 A 
HETATM   28  C   UNL     1      31.152  24.869  33.258  1.00  0.00     0.019 A 
HETATM   29  C   UNL     1      32.518  25.038  33.458  1.00  0.00     0.004 A 
HETATM   30  C   UNL     1      33.419  24.204  32.805  1.00  0.00     0.031 A 
ENDBRANCH  24  25
ENDBRANCH   5  23
TORSDOF 5
