REMARK VINA RESULT:      -6.0     14.219     16.178
REMARK  5 active torsions:
REMARK  status: ('A' for Active; 'I' for Inactive)
REMARK    1  A    between atoms: S_1  and  C_11 
REMARK    2  A    between atoms: S_1  and  C_14 
REMARK       I    between atoms: N_5  and  C_21 
REMARK    3  A    between atoms: C_9  and  C_15 
REMARK    4  A    between atoms: C_16  and  C_21 
REMARK    5  A    between atoms: C_18  and  C_23 
ROOT
HETATM    1  N   UNL     1      25.449  16.150  37.524  1.00  0.00    -0.277 N 
HETATM    2  N   UNL     1      25.640  16.014  36.201  1.00  0.00    -0.174 NA
HETATM    3  C   UNL     1      24.085  17.631  36.656  1.00  0.00     0.022 A 
HETATM    4  C   UNL     1      24.528  17.104  37.863  1.00  0.00     0.064 A 
HETATM    5  C   UNL     1      24.808  16.917  35.676  1.00  0.00     0.089 A 
HETATM    6  C   UNL     1      24.056  17.541  39.103  1.00  0.00     0.051 A 
HETATM    7  C   UNL     1      23.095  18.556  39.094  1.00  0.00     0.007 A 
HETATM    8  C   UNL     1      23.119  18.652  36.663  1.00  0.00     0.017 A 
HETATM    9  C   UNL     1      22.633  19.104  37.896  1.00  0.00     0.020 A 
HETATM   10  H   UNL     1      25.982  15.555  38.147  1.00  0.00     0.189 HD
ENDROOT
BRANCH   7  11
HETATM   11  S   UNL     1      22.449  19.162  40.645  1.00  0.00    -0.089 SA
BRANCH  11  12
HETATM   12  C   UNL     1      23.881  19.994  41.315  1.00  0.00     0.021 A 
HETATM   13  C   UNL     1      24.592  19.483  42.403  1.00  0.00     0.049 A 
HETATM   14  C   UNL     1      25.705  20.166  42.893  1.00  0.00     0.018 A 
HETATM   15  C   UNL     1      26.109  21.361  42.299  1.00  0.00     0.001 A 
HETATM   16  C   UNL     1      25.400  21.874  41.212  1.00  0.00     0.001 A 
HETATM   17  C   UNL     1      24.288  21.191  40.722  1.00  0.00     0.020 A 
BRANCH  13  18
HETATM   18  C   UNL     1      24.215  18.238  43.063  1.00  0.00     0.252 C 
HETATM   19  O   UNL     1      24.677  17.156  42.670  1.00  0.00    -0.268 OA
HETATM   20  N   UNL     1      23.344  18.340  44.151  1.00  0.00    -0.361 N 
HETATM   21  C   UNL     1      22.897  17.202  44.923  1.00  0.00     0.149 C 
HETATM   22  H   UNL     1      23.033  19.262  44.445  1.00  0.00     0.162 HD
ENDBRANCH  13  18
ENDBRANCH  11  12
ENDBRANCH   7  11
BRANCH   5  23
HETATM   23  C   UNL     1      24.679  17.124  34.277  1.00  0.00     0.036 C 
HETATM   24  C   UNL     1      25.235  16.398  33.271  1.00  0.00     0.034 C 
BRANCH  24  25
HETATM   25  C   UNL     1      25.071  16.672  31.832  1.00  0.00     0.056 A 
HETATM   26  N   UNL     1      26.206  16.650  31.113  1.00  0.00    -0.261 NA
HETATM   27  C   UNL     1      26.067  16.902  29.792  1.00  0.00     0.117 A 
HETATM   28  C   UNL     1      24.853  17.171  29.178  1.00  0.00     0.019 A 
HETATM   29  C   UNL     1      23.711  17.180  29.971  1.00  0.00     0.004 A 
HETATM   30  C   UNL     1      23.815  16.926  31.334  1.00  0.00     0.031 A 
ENDBRANCH  24  25
ENDBRANCH   5  23
TORSDOF 5
