REMARK VINA RESULT:     -10.7      3.953      4.691
REMARK  7 active torsions:
REMARK  status: ('A' for Active; 'I' for Inactive)
REMARK    1  A    between atoms: N_5  and  C_15 
REMARK    2  A    between atoms: N_7  and  C_22 
REMARK       I    between atoms: N_7  and  C_24 
REMARK    3  A    between atoms: C_15  and  C_16 
REMARK    4  A    between atoms: C_18  and  C_23 
REMARK    5  A    between atoms: C_24  and  C_25 
REMARK    6  A    between atoms: C_28  and  C_32 
REMARK    7  A    between atoms: C_33  and  C_35 
ROOT
HETATM    1  O   UNL     1      40.670  15.025  38.676  1.00  0.00    -0.267 OA
HETATM    2  N   UNL     1      40.010  16.675  37.138  1.00  0.00    -0.323 N 
HETATM    3  C   UNL     1      39.807  15.642  38.062  1.00  0.00     0.256 C 
HETATM    4  H   UNL     1      39.193  17.125  36.735  1.00  0.00     0.169 HD
ENDROOT
BRANCH   2   5
HETATM    5  C   UNL     1      41.222  17.224  36.716  1.00  0.00     0.035 A 
HETATM    6  C   UNL     1      41.951  16.607  35.700  1.00  0.00     0.046 A 
HETATM    7  C   UNL     1      43.163  17.156  35.278  1.00  0.00     0.058 A 
HETATM    8  C   UNL     1      43.643  18.322  35.872  1.00  0.00    -0.015 A 
HETATM    9  C   UNL     1      42.914  18.940  36.889  1.00  0.00     0.012 A 
HETATM   10  C   UNL     1      41.703  18.390  37.311  1.00  0.00     0.030 A 
BRANCH   7  11
HETATM   11  C   UNL     1      43.925  16.479  34.187  1.00  0.00     0.418 C 
HETATM   12  F   UNL     1      44.093  17.255  33.075  1.00  0.00    -0.166 F 
HETATM   13  F   UNL     1      45.185  16.104  34.554  1.00  0.00    -0.166 F 
HETATM   14  F   UNL     1      43.314  15.340  33.751  1.00  0.00    -0.166 F 
ENDBRANCH   7  11
BRANCH   8  15
HETATM   15  C   UNL     1      44.948  18.934  35.434  1.00  0.00     0.311 C 
BRANCH  15  16
HETATM   16  N   UNL     1      45.822  19.222  36.569  1.00  0.00     0.096 N 
HETATM   17  C   UNL     1      46.730  20.333  36.260  1.00  0.00     0.303 C 
HETATM   18  C   UNL     1      47.650  20.634  37.450  1.00  0.00     0.302 C 
HETATM   19  N   UNL     1      48.413  19.440  37.835  1.00  0.00     0.087 N 
HETATM   20  C   UNL     1      47.506  18.328  38.142  1.00  0.00     0.302 C 
HETATM   21  C   UNL     1      49.286  19.727  38.971  1.00  0.00     0.310 C 
HETATM   22  C   UNL     1      46.586  18.028  36.953  1.00  0.00     0.303 C 
ENDBRANCH  15  16
ENDBRANCH   8  15
ENDBRANCH   2   5
BRANCH   3  23
HETATM   23  C   UNL     1      38.389  15.257  38.285  1.00  0.00     0.033 A 
HETATM   24  C   UNL     1      38.082  14.147  39.072  1.00  0.00     0.038 A 
HETATM   25  C   UNL     1      36.750  13.787  39.281  1.00  0.00     0.025 A 
HETATM   26  C   UNL     1      35.726  14.536  38.703  1.00  0.00    -0.043 A 
HETATM   27  C   UNL     1      36.033  15.645  37.915  1.00  0.00     0.009 A 
HETATM   28  C   UNL     1      34.288  14.179  38.905  1.00  0.00     0.049 C 
HETATM   29  C   UNL     1      37.364  16.006  37.706  1.00  0.00     0.017 A 
BRANCH  25  30
HETATM   30  C   UNL     1      36.461  12.643  40.092  1.00  0.00    -0.059 C 
HETATM   31  C   UNL     1      36.218  11.683  40.773  1.00  0.00    -0.040 C 
BRANCH  31  32
HETATM   32  C   UNL     1      35.929  10.542  41.584  1.00  0.00     0.131 A 
HETATM   33  N   UNL     1      35.238   9.424  41.195  1.00  0.00    -0.206 N 
HETATM   34  N   UNL     1      34.701   9.208  39.961  1.00  0.00    -0.177 NA
HETATM   35  C   UNL     1      35.192   8.574  42.286  1.00  0.00     0.151 A 
HETATM   36  C   UNL     1      34.098   8.065  39.864  1.00  0.00     0.139 A 
HETATM   37  C   UNL     1      33.964   7.049  40.935  1.00  0.00     0.025 A 
HETATM   38  C   UNL     1      34.518   7.341  42.117  1.00  0.00     0.054 A 
HETATM   39  N   UNL     1      35.813   9.096  43.325  1.00  0.00    -0.238 NA
HETATM   40  C   UNL     1      36.272  10.315  42.895  1.00  0.00     0.160 A 
ENDBRANCH  31  32
ENDBRANCH  25  30
ENDBRANCH   3  23
TORSDOF 7
