REMARK VINA RESULT:     -11.9      0.000      0.000
REMARK  7 active torsions:
REMARK  status: ('A' for Active; 'I' for Inactive)
REMARK    1  A    between atoms: N_5  and  C_15 
REMARK    2  A    between atoms: N_7  and  C_22 
REMARK       I    between atoms: N_7  and  C_24 
REMARK    3  A    between atoms: C_15  and  C_16 
REMARK    4  A    between atoms: C_18  and  C_23 
REMARK    5  A    between atoms: C_24  and  C_25 
REMARK    6  A    between atoms: C_28  and  C_32 
REMARK    7  A    between atoms: C_33  and  C_35 
ROOT
HETATM    1  O   UNL     1      40.436  16.859  39.137  1.00  0.00    -0.267 OA
HETATM    2  N   UNL     1      40.988  14.576  39.234  1.00  0.00    -0.323 N 
HETATM    3  C   UNL     1      40.129  15.673  39.087  1.00  0.00     0.256 C 
HETATM    4  H   UNL     1      40.596  13.644  39.128  1.00  0.00     0.169 HD
ENDROOT
BRANCH   2   5
HETATM    5  C   UNL     1      42.364  14.587  39.464  1.00  0.00     0.035 A 
HETATM    6  C   UNL     1      42.964  13.536  40.157  1.00  0.00     0.046 A 
HETATM    7  C   UNL     1      44.340  13.547  40.388  1.00  0.00     0.058 A 
HETATM    8  C   UNL     1      45.115  14.609  39.924  1.00  0.00    -0.015 A 
HETATM    9  C   UNL     1      44.516  15.661  39.230  1.00  0.00     0.012 A 
HETATM   10  C   UNL     1      43.140  15.649  39.001  1.00  0.00     0.030 A 
BRANCH   7  11
HETATM   11  C   UNL     1      44.961  12.410  41.130  1.00  0.00     0.418 C 
HETATM   12  F   UNL     1      46.008  11.833  40.470  1.00  0.00    -0.166 F 
HETATM   13  F   UNL     1      45.458  12.763  42.351  1.00  0.00    -0.166 F 
HETATM   14  F   UNL     1      44.077  11.399  41.372  1.00  0.00    -0.166 F 
ENDBRANCH   7  11
BRANCH   8  15
HETATM   15  C   UNL     1      46.603  14.644  40.160  1.00  0.00     0.311 C 
BRANCH  15  16
HETATM   16  N   UNL     1      46.946  15.410  41.356  1.00  0.00     0.096 N 
HETATM   17  C   UNL     1      47.453  16.739  40.996  1.00  0.00     0.303 C 
HETATM   18  C   UNL     1      47.816  17.543  42.251  1.00  0.00     0.302 C 
HETATM   19  N   UNL     1      48.801  16.823  43.066  1.00  0.00     0.087 N 
HETATM   20  C   UNL     1      48.296  15.492  43.424  1.00  0.00     0.302 C 
HETATM   21  C   UNL     1      49.144  17.588  44.262  1.00  0.00     0.310 C 
HETATM   22  C   UNL     1      47.933  14.689  42.170  1.00  0.00     0.303 C 
ENDBRANCH  15  16
ENDBRANCH   8  15
ENDBRANCH   2   5
BRANCH   3  23
HETATM   23  C   UNL     1      38.697  15.337  38.876  1.00  0.00     0.033 A 
HETATM   24  C   UNL     1      38.189  14.123  39.341  1.00  0.00     0.038 A 
HETATM   25  C   UNL     1      36.844  13.809  39.143  1.00  0.00     0.025 A 
HETATM   26  C   UNL     1      36.007  14.707  38.482  1.00  0.00    -0.043 A 
HETATM   27  C   UNL     1      36.515  15.920  38.017  1.00  0.00     0.009 A 
HETATM   28  C   UNL     1      34.561  14.404  38.252  1.00  0.00     0.049 C 
HETATM   29  C   UNL     1      37.860  16.235  38.215  1.00  0.00     0.017 A 
BRANCH  25  30
HETATM   30  C   UNL     1      36.347  12.557  39.628  1.00  0.00    -0.059 C 
HETATM   31  C   UNL     1      35.929  11.506  40.034  1.00  0.00    -0.040 C 
BRANCH  31  32
HETATM   32  C   UNL     1      35.433  10.255  40.517  1.00  0.00     0.131 A 
HETATM   33  N   UNL     1      35.211   9.921  41.828  1.00  0.00    -0.206 N 
HETATM   34  N   UNL     1      35.430  10.728  42.904  1.00  0.00    -0.177 NA
HETATM   35  C   UNL     1      34.731   8.623  41.842  1.00  0.00     0.151 A 
HETATM   36  C   UNL     1      35.136  10.160  44.031  1.00  0.00     0.139 A 
HETATM   37  C   UNL     1      34.614   8.784  44.212  1.00  0.00     0.025 A 
HETATM   38  C   UNL     1      34.429   8.058  43.103  1.00  0.00     0.054 A 
HETATM   39  N   UNL     1      34.641   8.134  40.621  1.00  0.00    -0.238 NA
HETATM   40  C   UNL     1      35.074   9.142  39.796  1.00  0.00     0.160 A 
ENDBRANCH  31  32
ENDBRANCH  25  30
ENDBRANCH   3  23
TORSDOF 7
