REMARK VINA RESULT:     -11.3      1.655      2.516
REMARK  7 active torsions:
REMARK  status: ('A' for Active; 'I' for Inactive)
REMARK    1  A    between atoms: N_5  and  C_15 
REMARK    2  A    between atoms: N_7  and  C_22 
REMARK       I    between atoms: N_7  and  C_24 
REMARK    3  A    between atoms: C_15  and  C_16 
REMARK    4  A    between atoms: C_18  and  C_23 
REMARK    5  A    between atoms: C_24  and  C_25 
REMARK    6  A    between atoms: C_28  and  C_32 
REMARK    7  A    between atoms: C_33  and  C_35 
ROOT
HETATM    1  O   UNL     1      40.902  15.907  37.566  1.00  0.00    -0.267 OA
HETATM    2  N   UNL     1      41.119  14.638  39.533  1.00  0.00    -0.323 N 
HETATM    3  C   UNL     1      40.423  15.241  38.477  1.00  0.00     0.256 C 
HETATM    4  H   UNL     1      40.590  14.079  40.197  1.00  0.00     0.169 HD
ENDROOT
BRANCH   2   5
HETATM    5  C   UNL     1      42.492  14.658  39.778  1.00  0.00     0.035 A 
HETATM    6  C   UNL     1      43.081  13.641  40.530  1.00  0.00     0.046 A 
HETATM    7  C   UNL     1      44.455  13.660  40.775  1.00  0.00     0.058 A 
HETATM    8  C   UNL     1      45.238  14.697  40.269  1.00  0.00    -0.015 A 
HETATM    9  C   UNL     1      44.650  15.713  39.517  1.00  0.00     0.012 A 
HETATM   10  C   UNL     1      43.276  15.694  39.272  1.00  0.00     0.030 A 
BRANCH   7  11
HETATM   11  C   UNL     1      45.064  12.560  41.581  1.00  0.00     0.418 C 
HETATM   12  F   UNL     1      45.671  11.600  40.823  1.00  0.00    -0.166 F 
HETATM   13  F   UNL     1      46.024  12.989  42.451  1.00  0.00    -0.166 F 
HETATM   14  F   UNL     1      44.145  11.900  42.343  1.00  0.00    -0.166 F 
ENDBRANCH   7  11
BRANCH   8  15
HETATM   15  C   UNL     1      46.723  14.739  40.519  1.00  0.00     0.311 C 
BRANCH  15  16
HETATM   16  N   UNL     1      47.469  14.013  39.493  1.00  0.00     0.096 N 
HETATM   17  C   UNL     1      48.498  13.162  40.101  1.00  0.00     0.303 C 
HETATM   18  C   UNL     1      49.283  12.401  39.026  1.00  0.00     0.302 C 
HETATM   19  N   UNL     1      49.888  13.331  38.065  1.00  0.00     0.087 N 
HETATM   20  C   UNL     1      48.859  14.184  37.458  1.00  0.00     0.302 C 
HETATM   21  C   UNL     1      50.633  12.605  37.039  1.00  0.00     0.310 C 
HETATM   22  C   UNL     1      48.075  14.944  38.534  1.00  0.00     0.303 C 
ENDBRANCH  15  16
ENDBRANCH   8  15
ENDBRANCH   2   5
BRANCH   3  23
HETATM   23  C   UNL     1      38.948  15.063  38.503  1.00  0.00     0.033 A 
HETATM   24  C   UNL     1      38.395  13.882  39.000  1.00  0.00     0.038 A 
HETATM   25  C   UNL     1      37.011  13.716  39.024  1.00  0.00     0.025 A 
HETATM   26  C   UNL     1      36.177  14.730  38.553  1.00  0.00    -0.043 A 
HETATM   27  C   UNL     1      36.730  15.911  38.056  1.00  0.00     0.009 A 
HETATM   28  C   UNL     1      34.689  14.587  38.564  1.00  0.00     0.049 C 
HETATM   29  C   UNL     1      38.114  16.077  38.031  1.00  0.00     0.017 A 
BRANCH  25  30
HETATM   30  C   UNL     1      36.468  12.494  39.537  1.00  0.00    -0.059 C 
HETATM   31  C   UNL     1      36.013  11.469  39.969  1.00  0.00    -0.040 C 
BRANCH  31  32
HETATM   32  C   UNL     1      35.470  10.249  40.480  1.00  0.00     0.131 A 
HETATM   33  N   UNL     1      35.290   9.931  41.801  1.00  0.00    -0.206 N 
HETATM   34  N   UNL     1      35.602  10.728  42.862  1.00  0.00    -0.177 NA
HETATM   35  C   UNL     1      34.741   8.662  41.843  1.00  0.00     0.151 A 
HETATM   36  C   UNL     1      35.329  10.180  44.004  1.00  0.00     0.139 A 
HETATM   37  C   UNL     1      34.740   8.836  44.215  1.00  0.00     0.025 A 
HETATM   38  C   UNL     1      34.466   8.119  43.120  1.00  0.00     0.054 A 
HETATM   39  N   UNL     1      34.569   8.176  40.630  1.00  0.00    -0.238 NA
HETATM   40  C   UNL     1      35.018   9.155  39.782  1.00  0.00     0.160 A 
ENDBRANCH  31  32
ENDBRANCH  25  30
ENDBRANCH   3  23
TORSDOF 7
