REMARK VINA RESULT:     -10.6      4.797      5.535
REMARK  7 active torsions:
REMARK  status: ('A' for Active; 'I' for Inactive)
REMARK    1  A    between atoms: N_5  and  C_15 
REMARK    2  A    between atoms: N_7  and  C_22 
REMARK       I    between atoms: N_7  and  C_24 
REMARK    3  A    between atoms: C_15  and  C_16 
REMARK    4  A    between atoms: C_18  and  C_23 
REMARK    5  A    between atoms: C_24  and  C_25 
REMARK    6  A    between atoms: C_28  and  C_32 
REMARK    7  A    between atoms: C_33  and  C_35 
ROOT
HETATM    1  O   UNL     1      40.647  15.235  38.766  1.00  0.00    -0.267 OA
HETATM    2  N   UNL     1      39.989  16.791  37.132  1.00  0.00    -0.323 N 
HETATM    3  C   UNL     1      39.787  15.793  38.095  1.00  0.00     0.256 C 
HETATM    4  H   UNL     1      39.171  17.193  36.680  1.00  0.00     0.169 HD
ENDROOT
BRANCH   2   5
HETATM    5  C   UNL     1      41.195  17.364  36.728  1.00  0.00     0.035 A 
HETATM    6  C   UNL     1      41.925  16.791  35.687  1.00  0.00     0.046 A 
HETATM    7  C   UNL     1      43.132  17.363  35.284  1.00  0.00     0.058 A 
HETATM    8  C   UNL     1      43.607  18.509  35.921  1.00  0.00    -0.015 A 
HETATM    9  C   UNL     1      42.877  19.083  36.961  1.00  0.00     0.012 A 
HETATM   10  C   UNL     1      41.670  18.509  37.365  1.00  0.00     0.030 A 
BRANCH   7  11
HETATM   11  C   UNL     1      43.896  16.734  34.166  1.00  0.00     0.418 C 
HETATM   12  F   UNL     1      44.021  17.537  33.069  1.00  0.00    -0.166 F 
HETATM   13  F   UNL     1      45.173  16.389  34.504  1.00  0.00    -0.166 F 
HETATM   14  F   UNL     1      43.313  15.585  33.715  1.00  0.00    -0.166 F 
ENDBRANCH   7  11
BRANCH   8  15
HETATM   15  C   UNL     1      44.906  19.146  35.503  1.00  0.00     0.311 C 
BRANCH  15  16
HETATM   16  N   UNL     1      44.957  20.562  35.861  1.00  0.00     0.096 N 
HETATM   17  C   UNL     1      45.119  21.397  34.664  1.00  0.00     0.303 C 
HETATM   18  C   UNL     1      45.175  22.883  35.039  1.00  0.00     0.302 C 
HETATM   19  N   UNL     1      46.260  23.140  35.994  1.00  0.00     0.087 N 
HETATM   20  C   UNL     1      46.100  22.304  37.190  1.00  0.00     0.302 C 
HETATM   21  C   UNL     1      46.310  24.556  36.353  1.00  0.00     0.310 C 
HETATM   22  C   UNL     1      46.043  20.819  36.815  1.00  0.00     0.303 C 
ENDBRANCH  15  16
ENDBRANCH   8  15
ENDBRANCH   2   5
BRANCH   3  23
HETATM   23  C   UNL     1      38.375  15.368  38.284  1.00  0.00     0.033 A 
HETATM   24  C   UNL     1      38.082  14.252  39.069  1.00  0.00     0.038 A 
HETATM   25  C   UNL     1      36.757  13.854  39.247  1.00  0.00     0.025 A 
HETATM   26  C   UNL     1      35.725  14.571  38.641  1.00  0.00    -0.043 A 
HETATM   27  C   UNL     1      36.019  15.687  37.857  1.00  0.00     0.009 A 
HETATM   28  C   UNL     1      34.293  14.174  38.810  1.00  0.00     0.049 C 
HETATM   29  C   UNL     1      37.344  16.085  37.678  1.00  0.00     0.017 A 
BRANCH  25  30
HETATM   30  C   UNL     1      36.481  12.705  40.056  1.00  0.00    -0.059 C 
HETATM   31  C   UNL     1      36.250  11.741  40.734  1.00  0.00    -0.040 C 
BRANCH  31  32
HETATM   32  C   UNL     1      35.975  10.594  41.542  1.00  0.00     0.131 A 
HETATM   33  N   UNL     1      35.277   9.479  41.159  1.00  0.00    -0.206 N 
HETATM   34  N   UNL     1      34.719   9.270  39.933  1.00  0.00    -0.177 NA
HETATM   35  C   UNL     1      35.250   8.622  42.245  1.00  0.00     0.151 A 
HETATM   36  C   UNL     1      34.115   8.127  39.839  1.00  0.00     0.139 A 
HETATM   37  C   UNL     1      33.999   7.105  40.906  1.00  0.00     0.025 A 
HETATM   38  C   UNL     1      34.574   7.390  42.080  1.00  0.00     0.054 A 
HETATM   39  N   UNL     1      35.889   9.138  43.276  1.00  0.00    -0.238 NA
HETATM   40  C   UNL     1      36.340  10.359  42.846  1.00  0.00     0.160 A 
ENDBRANCH  31  32
ENDBRANCH  25  30
ENDBRANCH   3  23
TORSDOF 7
