REMARK VINA RESULT:     -10.8      1.809      2.537
REMARK  7 active torsions:
REMARK  status: ('A' for Active; 'I' for Inactive)
REMARK    1  A    between atoms: N_5  and  C_15 
REMARK    2  A    between atoms: N_7  and  C_22 
REMARK       I    between atoms: N_7  and  C_24 
REMARK    3  A    between atoms: C_15  and  C_16 
REMARK    4  A    between atoms: C_18  and  C_23 
REMARK    5  A    between atoms: C_24  and  C_25 
REMARK    6  A    between atoms: C_28  and  C_32 
REMARK    7  A    between atoms: C_33  and  C_35 
ROOT
HETATM    1  O   UNL     1      43.299  16.267  38.359  1.00  0.00    -0.267 OA
HETATM    2  N   UNL     1      42.512  14.993  40.171  1.00  0.00    -0.323 N 
HETATM    3  C   UNL     1      42.394  15.721  38.979  1.00  0.00     0.256 C 
HETATM    4  H   UNL     1      41.675  14.561  40.552  1.00  0.00     0.169 HD
ENDROOT
BRANCH   2   5
HETATM    5  C   UNL     1      43.669  14.729  40.904  1.00  0.00     0.035 A 
HETATM    6  C   UNL     1      44.574  13.767  40.456  1.00  0.00     0.046 A 
HETATM    7  C   UNL     1      45.732  13.502  41.190  1.00  0.00     0.058 A 
HETATM    8  C   UNL     1      45.983  14.201  42.370  1.00  0.00    -0.015 A 
HETATM    9  C   UNL     1      45.078  15.163  42.818  1.00  0.00     0.012 A 
HETATM   10  C   UNL     1      43.921  15.426  42.085  1.00  0.00     0.030 A 
BRANCH   7  11
HETATM   11  C   UNL     1      46.688  12.470  40.690  1.00  0.00     0.418 C 
HETATM   12  F   UNL     1      46.296  11.884  39.520  1.00  0.00    -0.166 F 
HETATM   13  F   UNL     1      47.938  12.959  40.444  1.00  0.00    -0.166 F 
HETATM   14  F   UNL     1      46.861  11.445  41.574  1.00  0.00    -0.166 F 
ENDBRANCH   7  11
BRANCH   8  15
HETATM   15  C   UNL     1      47.226  13.934  43.179  1.00  0.00     0.311 C 
BRANCH  15  16
HETATM   16  N   UNL     1      48.098  15.105  43.238  1.00  0.00     0.096 N 
HETATM   17  C   UNL     1      49.486  14.737  42.937  1.00  0.00     0.303 C 
HETATM   18  C   UNL     1      50.403  15.965  43.000  1.00  0.00     0.302 C 
HETATM   19  N   UNL     1      50.318  16.612  44.315  1.00  0.00     0.087 N 
HETATM   20  C   UNL     1      48.929  16.978  44.618  1.00  0.00     0.302 C 
HETATM   21  C   UNL     1      51.189  17.783  44.374  1.00  0.00     0.310 C 
HETATM   22  C   UNL     1      48.013  15.751  44.553  1.00  0.00     0.303 C 
ENDBRANCH  15  16
ENDBRANCH   8  15
ENDBRANCH   2   5
BRANCH   3  23
HETATM   23  C   UNL     1      41.012  15.853  38.448  1.00  0.00     0.033 A 
HETATM   24  C   UNL     1      39.989  15.053  38.956  1.00  0.00     0.038 A 
HETATM   25  C   UNL     1      38.692  15.178  38.458  1.00  0.00     0.025 A 
HETATM   26  C   UNL     1      38.418  16.104  37.452  1.00  0.00    -0.043 A 
HETATM   27  C   UNL     1      39.441  16.905  36.944  1.00  0.00     0.009 A 
HETATM   28  C   UNL     1      37.040  16.266  36.894  1.00  0.00     0.049 C 
HETATM   29  C   UNL     1      40.738  16.779  37.442  1.00  0.00     0.017 A 
BRANCH  25  30
HETATM   30  C   UNL     1      37.660  14.344  38.995  1.00  0.00    -0.059 C 
HETATM   31  C   UNL     1      36.793  13.644  39.445  1.00  0.00    -0.040 C 
BRANCH  31  32
HETATM   32  C   UNL     1      35.762  12.811  39.980  1.00  0.00     0.131 A 
HETATM   33  N   UNL     1      35.939  11.680  40.732  1.00  0.00    -0.206 N 
HETATM   34  N   UNL     1      37.140  11.148  41.100  1.00  0.00    -0.177 NA
HETATM   35  C   UNL     1      34.681  11.191  41.037  1.00  0.00     0.151 A 
HETATM   36  C   UNL     1      37.019  10.071  41.811  1.00  0.00     0.139 A 
HETATM   37  C   UNL     1      35.749   9.425  42.220  1.00  0.00     0.025 A 
HETATM   38  C   UNL     1      34.617  10.012  41.816  1.00  0.00     0.054 A 
HETATM   39  N   UNL     1      33.736  11.951  40.521  1.00  0.00    -0.238 NA
HETATM   40  C   UNL     1      34.400  12.957  39.866  1.00  0.00     0.160 A 
ENDBRANCH  31  32
ENDBRANCH  25  30
ENDBRANCH   3  23
TORSDOF 7
