REMARK VINA RESULT:     -10.1      9.676     15.511
REMARK  7 active torsions:
REMARK  status: ('A' for Active; 'I' for Inactive)
REMARK    1  A    between atoms: N_5  and  C_15 
REMARK    2  A    between atoms: N_7  and  C_22 
REMARK       I    between atoms: N_7  and  C_24 
REMARK    3  A    between atoms: C_15  and  C_16 
REMARK    4  A    between atoms: C_18  and  C_23 
REMARK    5  A    between atoms: C_24  and  C_25 
REMARK    6  A    between atoms: C_28  and  C_32 
REMARK    7  A    between atoms: C_33  and  C_35 
ROOT
HETATM    1  O   UNL     1      34.732   5.270  51.909  1.00  0.00    -0.267 OA
HETATM    2  N   UNL     1      35.654   4.726  49.816  1.00  0.00    -0.323 N 
HETATM    3  C   UNL     1      34.952   5.524  50.730  1.00  0.00     0.256 C 
HETATM    4  H   UNL     1      35.793   5.086  48.876  1.00  0.00     0.169 HD
ENDROOT
BRANCH   2   5
HETATM    5  C   UNL     1      36.250   3.485  50.040  1.00  0.00     0.035 A 
HETATM    6  C   UNL     1      37.613   3.313  49.801  1.00  0.00     0.046 A 
HETATM    7  C   UNL     1      38.210   2.072  50.025  1.00  0.00     0.058 A 
HETATM    8  C   UNL     1      37.443   1.004  50.489  1.00  0.00    -0.015 A 
HETATM    9  C   UNL     1      36.080   1.176  50.729  1.00  0.00     0.012 A 
HETATM   10  C   UNL     1      35.483   2.417  50.504  1.00  0.00     0.030 A 
BRANCH   7  11
HETATM   11  C   UNL     1      39.672   1.912  49.764  1.00  0.00     0.418 C 
HETATM   12  F   UNL     1      40.364   1.406  50.827  1.00  0.00    -0.166 F 
HETATM   13  F   UNL     1      39.951   1.073  48.724  1.00  0.00    -0.166 F 
HETATM   14  F   UNL     1      40.281   3.093  49.457  1.00  0.00    -0.166 F 
ENDBRANCH   7  11
BRANCH   8  15
HETATM   15  C   UNL     1      38.065  -0.345  50.740  1.00  0.00     0.311 C 
BRANCH  15  16
HETATM   16  N   UNL     1      37.551  -0.962  51.962  1.00  0.00     0.096 N 
HETATM   17  C   UNL     1      38.246  -0.436  53.143  1.00  0.00     0.303 C 
HETATM   18  C   UNL     1      37.709  -1.084  54.425  1.00  0.00     0.302 C 
HETATM   19  N   UNL     1      37.837  -2.545  54.364  1.00  0.00     0.087 N 
HETATM   20  C   UNL     1      37.144  -3.071  53.182  1.00  0.00     0.302 C 
HETATM   21  C   UNL     1      37.323  -3.161  55.586  1.00  0.00     0.310 C 
HETATM   22  C   UNL     1      37.680  -2.423  51.901  1.00  0.00     0.303 C 
ENDBRANCH  15  16
ENDBRANCH   8  15
ENDBRANCH   2   5
BRANCH   3  23
HETATM   23  C   UNL     1      34.406   6.792  50.181  1.00  0.00     0.033 A 
HETATM   24  C   UNL     1      34.652   7.141  48.853  1.00  0.00     0.038 A 
HETATM   25  C   UNL     1      34.138   8.331  48.337  1.00  0.00     0.025 A 
HETATM   26  C   UNL     1      33.379   9.173  49.150  1.00  0.00    -0.043 A 
HETATM   27  C   UNL     1      33.134   8.824  50.478  1.00  0.00     0.009 A 
HETATM   28  C   UNL     1      32.813  10.456  48.632  1.00  0.00     0.049 C 
HETATM   29  C   UNL     1      33.647   7.634  50.993  1.00  0.00     0.017 A 
BRANCH  25  30
HETATM   30  C   UNL     1      34.405   8.667  46.972  1.00  0.00    -0.059 C 
HETATM   31  C   UNL     1      34.629   8.949  45.825  1.00  0.00    -0.040 C 
BRANCH  31  32
HETATM   32  C   UNL     1      34.895   9.285  44.461  1.00  0.00     0.131 A 
HETATM   33  N   UNL     1      34.622   8.509  43.365  1.00  0.00    -0.206 N 
HETATM   34  N   UNL     1      34.048   7.273  43.388  1.00  0.00    -0.177 NA
HETATM   35  C   UNL     1      35.038   9.216  42.251  1.00  0.00     0.151 A 
HETATM   36  C   UNL     1      33.904   6.760  42.206  1.00  0.00     0.139 A 
HETATM   37  C   UNL     1      34.297   7.388  40.922  1.00  0.00     0.025 A 
HETATM   38  C   UNL     1      34.855   8.602  40.990  1.00  0.00     0.054 A 
HETATM   39  N   UNL     1      35.552  10.382  42.590  1.00  0.00    -0.238 NA
HETATM   40  C   UNL     1      35.464  10.430  43.958  1.00  0.00     0.160 A 
ENDBRANCH  31  32
ENDBRANCH  25  30
ENDBRANCH   3  23
TORSDOF 7
