REMARK VINA RESULT:     -10.3     10.267     16.015
REMARK  7 active torsions:
REMARK  status: ('A' for Active; 'I' for Inactive)
REMARK    1  A    between atoms: N_5  and  C_15 
REMARK    2  A    between atoms: N_7  and  C_22 
REMARK       I    between atoms: N_7  and  C_24 
REMARK    3  A    between atoms: C_15  and  C_16 
REMARK    4  A    between atoms: C_18  and  C_23 
REMARK    5  A    between atoms: C_24  and  C_25 
REMARK    6  A    between atoms: C_28  and  C_32 
REMARK    7  A    between atoms: C_33  and  C_35 
ROOT
HETATM    1  O   UNL     1      36.585   4.661  48.980  1.00  0.00    -0.267 OA
HETATM    2  N   UNL     1      35.265   4.431  50.911  1.00  0.00    -0.323 N 
HETATM    3  C   UNL     1      35.709   5.059  49.740  1.00  0.00     0.256 C 
HETATM    4  H   UNL     1      34.498   4.860  51.422  1.00  0.00     0.169 HD
ENDROOT
BRANCH   2   5
HETATM    5  C   UNL     1      35.712   3.231  51.465  1.00  0.00     0.035 A 
HETATM    6  C   UNL     1      36.310   3.225  52.726  1.00  0.00     0.046 A 
HETATM    7  C   UNL     1      36.757   2.026  53.280  1.00  0.00     0.058 A 
HETATM    8  C   UNL     1      36.606   0.833  52.574  1.00  0.00    -0.015 A 
HETATM    9  C   UNL     1      36.008   0.838  51.314  1.00  0.00     0.012 A 
HETATM   10  C   UNL     1      35.561   2.038  50.760  1.00  0.00     0.030 A 
BRANCH   7  11
HETATM   11  C   UNL     1      37.392   2.043  54.632  1.00  0.00     0.418 C 
HETATM   12  F   UNL     1      38.665   1.550  54.644  1.00  0.00    -0.166 F 
HETATM   13  F   UNL     1      37.487   3.293  55.173  1.00  0.00    -0.166 F 
HETATM   14  F   UNL     1      36.702   1.300  55.544  1.00  0.00    -0.166 F 
ENDBRANCH   7  11
BRANCH   8  15
HETATM   15  C   UNL     1      37.080  -0.475  53.152  1.00  0.00     0.311 C 
BRANCH  15  16
HETATM   16  N   UNL     1      37.689  -1.330  52.135  1.00  0.00     0.096 N 
HETATM   17  C   UNL     1      37.396  -2.744  52.398  1.00  0.00     0.303 C 
HETATM   18  C   UNL     1      38.037  -3.641  51.333  1.00  0.00     0.302 C 
HETATM   19  N   UNL     1      39.487  -3.422  51.269  1.00  0.00     0.087 N 
HETATM   20  C   UNL     1      39.781  -2.008  51.008  1.00  0.00     0.302 C 
HETATM   21  C   UNL     1      40.096  -4.275  50.251  1.00  0.00     0.310 C 
HETATM   22  C   UNL     1      39.139  -1.110  52.072  1.00  0.00     0.303 C 
ENDBRANCH  15  16
ENDBRANCH   8  15
ENDBRANCH   2   5
BRANCH   3  23
HETATM   23  C   UNL     1      35.052   6.353  49.422  1.00  0.00     0.033 A 
HETATM   24  C   UNL     1      35.124   6.875  48.130  1.00  0.00     0.038 A 
HETATM   25  C   UNL     1      34.506   8.089  47.833  1.00  0.00     0.025 A 
HETATM   26  C   UNL     1      33.814   8.782  48.826  1.00  0.00    -0.043 A 
HETATM   27  C   UNL     1      33.742   8.260  50.118  1.00  0.00     0.009 A 
HETATM   28  C   UNL     1      33.139  10.086  48.544  1.00  0.00     0.049 C 
HETATM   29  C   UNL     1      34.361   7.046  50.416  1.00  0.00     0.017 A 
BRANCH  25  30
HETATM   30  C   UNL     1      34.595   8.604  46.500  1.00  0.00    -0.059 C 
HETATM   31  C   UNL     1      34.671   9.038  45.382  1.00  0.00    -0.040 C 
BRANCH  31  32
HETATM   32  C   UNL     1      34.762   9.552  44.051  1.00  0.00     0.131 A 
HETATM   33  N   UNL     1      34.613   8.837  42.892  1.00  0.00    -0.206 N 
HETATM   34  N   UNL     1      34.354   7.501  42.807  1.00  0.00    -0.177 NA
HETATM   35  C   UNL     1      34.777   9.724  41.842  1.00  0.00     0.151 A 
HETATM   36  C   UNL     1      34.263   7.080  41.585  1.00  0.00     0.139 A 
HETATM   37  C   UNL     1      34.412   7.900  40.359  1.00  0.00     0.025 A 
HETATM   38  C   UNL     1      34.666   9.202  40.532  1.00  0.00     0.054 A 
HETATM   39  N   UNL     1      35.017  10.943  42.281  1.00  0.00    -0.238 NA
HETATM   40  C   UNL     1      35.008  10.843  43.649  1.00  0.00     0.160 A 
ENDBRANCH  31  32
ENDBRANCH  25  30
ENDBRANCH   3  23
TORSDOF 7
