REMARK VINA RESULT:     -11.4      1.876      2.852
REMARK  7 active torsions:
REMARK  status: ('A' for Active; 'I' for Inactive)
REMARK    1  A    between atoms: N_5  and  C_15 
REMARK    2  A    between atoms: N_7  and  C_22 
REMARK       I    between atoms: N_7  and  C_24 
REMARK    3  A    between atoms: C_15  and  C_16 
REMARK    4  A    between atoms: C_18  and  C_23 
REMARK    5  A    between atoms: C_24  and  C_25 
REMARK    6  A    between atoms: C_28  and  C_32 
REMARK    7  A    between atoms: C_33  and  C_35 
ROOT
HETATM    1  O   UNL     1      40.803  16.029  37.325  1.00  0.00    -0.267 OA
HETATM    2  N   UNL     1      41.150  15.173  39.487  1.00  0.00    -0.323 N 
HETATM    3  C   UNL     1      40.394  15.501  38.353  1.00  0.00     0.256 C 
HETATM    4  H   UNL     1      40.680  14.699  40.254  1.00  0.00     0.169 HD
ENDROOT
BRANCH   2   5
HETATM    5  C   UNL     1      42.515  15.370  39.696  1.00  0.00     0.035 A 
HETATM    6  C   UNL     1      43.030  15.363  40.992  1.00  0.00     0.046 A 
HETATM    7  C   UNL     1      44.396  15.560  41.202  1.00  0.00     0.058 A 
HETATM    8  C   UNL     1      45.245  15.762  40.114  1.00  0.00    -0.015 A 
HETATM    9  C   UNL     1      44.730  15.769  38.818  1.00  0.00     0.012 A 
HETATM   10  C   UNL     1      43.365  15.573  38.609  1.00  0.00     0.030 A 
BRANCH   7  11
HETATM   11  C   UNL     1      44.925  15.546  42.598  1.00  0.00     0.418 C 
HETATM   12  F   UNL     1      45.871  16.503  42.833  1.00  0.00    -0.166 F 
HETATM   13  F   UNL     1      43.965  15.752  43.546  1.00  0.00    -0.166 F 
HETATM   14  F   UNL     1      45.515  14.359  42.922  1.00  0.00    -0.166 F 
ENDBRANCH   7  11
BRANCH   8  15
HETATM   15  C   UNL     1      46.723  15.976  40.314  1.00  0.00     0.311 C 
BRANCH  15  16
HETATM   16  N   UNL     1      47.476  14.732  40.170  1.00  0.00     0.096 N 
HETATM   17  C   UNL     1      48.312  14.489  41.352  1.00  0.00     0.303 C 
HETATM   18  C   UNL     1      49.104  13.185  41.201  1.00  0.00     0.302 C 
HETATM   19  N   UNL     1      49.929  13.213  39.987  1.00  0.00     0.087 N 
HETATM   20  C   UNL     1      49.095  13.458  38.805  1.00  0.00     0.302 C 
HETATM   21  C   UNL     1      50.682  11.969  39.843  1.00  0.00     0.310 C 
HETATM   22  C   UNL     1      48.302  14.761  38.957  1.00  0.00     0.303 C 
ENDBRANCH  15  16
ENDBRANCH   8  15
ENDBRANCH   2   5
BRANCH   3  23
HETATM   23  C   UNL     1      38.944  15.189  38.442  1.00  0.00     0.033 A 
HETATM   24  C   UNL     1      38.506  14.116  39.219  1.00  0.00     0.038 A 
HETATM   25  C   UNL     1      37.145  13.825  39.303  1.00  0.00     0.025 A 
HETATM   26  C   UNL     1      36.220  14.607  38.610  1.00  0.00    -0.043 A 
HETATM   27  C   UNL     1      36.658  15.680  37.833  1.00  0.00     0.009 A 
HETATM   28  C   UNL     1      34.753  14.325  38.676  1.00  0.00     0.049 C 
HETATM   29  C   UNL     1      38.019  15.971  37.749  1.00  0.00     0.017 A 
BRANCH  25  30
HETATM   30  C   UNL     1      36.721  12.718  40.106  1.00  0.00    -0.059 C 
HETATM   31  C   UNL     1      36.364  11.789  40.779  1.00  0.00    -0.040 C 
BRANCH  31  32
HETATM   32  C   UNL     1      35.941  10.683  41.580  1.00  0.00     0.131 A 
HETATM   33  N   UNL     1      35.266   9.574  41.142  1.00  0.00    -0.206 N 
HETATM   34  N   UNL     1      34.876   9.334  39.858  1.00  0.00    -0.177 NA
HETATM   35  C   UNL     1      35.060   8.761  42.242  1.00  0.00     0.151 A 
HETATM   36  C   UNL     1      34.252   8.206  39.721  1.00  0.00     0.139 A 
HETATM   37  C   UNL     1      33.955   7.230  40.796  1.00  0.00     0.025 A 
HETATM   38  C   UNL     1      34.371   7.544  42.027  1.00  0.00     0.054 A 
HETATM   39  N   UNL     1      35.567   9.299  43.334  1.00  0.00    -0.238 NA
HETATM   40  C   UNL     1      36.115  10.489  42.929  1.00  0.00     0.160 A 
ENDBRANCH  31  32
ENDBRANCH  25  30
ENDBRANCH   3  23
TORSDOF 7
