REMARK VINA RESULT:     -10.1     11.335     16.743
REMARK  7 active torsions:
REMARK  status: ('A' for Active; 'I' for Inactive)
REMARK    1  A    between atoms: N_5  and  C_15 
REMARK    2  A    between atoms: N_7  and  C_22 
REMARK       I    between atoms: N_7  and  C_24 
REMARK    3  A    between atoms: C_15  and  C_16 
REMARK    4  A    between atoms: C_18  and  C_23 
REMARK    5  A    between atoms: C_24  and  C_25 
REMARK    6  A    between atoms: C_28  and  C_32 
REMARK    7  A    between atoms: C_33  and  C_35 
ROOT
HETATM    1  O   UNL     1      34.451   4.582  50.455  1.00  0.00    -0.267 OA
HETATM    2  N   UNL     1      34.687   5.749  52.482  1.00  0.00    -0.323 N 
HETATM    3  C   UNL     1      34.433   5.618  51.110  1.00  0.00     0.256 C 
HETATM    4  H   UNL     1      34.595   6.671  52.900  1.00  0.00     0.169 HD
ENDROOT
BRANCH   2   5
HETATM    5  C   UNL     1      35.011   4.745  53.395  1.00  0.00     0.035 A 
HETATM    6  C   UNL     1      34.100   4.385  54.388  1.00  0.00     0.046 A 
HETATM    7  C   UNL     1      34.423   3.381  55.301  1.00  0.00     0.058 A 
HETATM    8  C   UNL     1      35.657   2.737  55.220  1.00  0.00    -0.015 A 
HETATM    9  C   UNL     1      36.568   3.096  54.226  1.00  0.00     0.012 A 
HETATM   10  C   UNL     1      36.244   4.100  53.314  1.00  0.00     0.030 A 
BRANCH   7  11
HETATM   11  C   UNL     1      33.432   3.011  56.355  1.00  0.00     0.418 C 
HETATM   12  F   UNL     1      32.734   1.872  56.072  1.00  0.00    -0.166 F 
HETATM   13  F   UNL     1      33.994   2.792  57.579  1.00  0.00    -0.166 F 
HETATM   14  F   UNL     1      32.491   3.979  56.550  1.00  0.00    -0.166 F 
ENDBRANCH   7  11
BRANCH   8  15
HETATM   15  C   UNL     1      36.029   1.649  56.193  1.00  0.00     0.311 C 
BRANCH  15  16
HETATM   16  N   UNL     1      37.386   1.156  55.965  1.00  0.00     0.096 N 
HETATM   17  C   UNL     1      37.369  -0.257  55.572  1.00  0.00     0.303 C 
HETATM   18  C   UNL     1      38.793  -0.776  55.335  1.00  0.00     0.302 C 
HETATM   19  N   UNL     1      39.623  -0.587  56.530  1.00  0.00     0.087 N 
HETATM   20  C   UNL     1      39.639   0.826  56.926  1.00  0.00     0.302 C 
HETATM   21  C   UNL     1      40.980  -1.078  56.302  1.00  0.00     0.310 C 
HETATM   22  C   UNL     1      38.216   1.344  57.162  1.00  0.00     0.303 C 
ENDBRANCH  15  16
ENDBRANCH   8  15
ENDBRANCH   2   5
BRANCH   3  23
HETATM   23  C   UNL     1      34.139   6.886  50.393  1.00  0.00     0.033 A 
HETATM   24  C   UNL     1      34.305   6.961  49.010  1.00  0.00     0.038 A 
HETATM   25  C   UNL     1      34.028   8.152  48.338  1.00  0.00     0.025 A 
HETATM   26  C   UNL     1      33.585   9.267  49.048  1.00  0.00    -0.043 A 
HETATM   27  C   UNL     1      33.419   9.192  50.431  1.00  0.00     0.009 A 
HETATM   28  C   UNL     1      33.278  10.560  48.361  1.00  0.00     0.049 C 
HETATM   29  C   UNL     1      33.696   8.002  51.103  1.00  0.00     0.017 A 
BRANCH  25  30
HETATM   30  C   UNL     1      34.207   8.204  46.918  1.00  0.00    -0.059 C 
HETATM   31  C   UNL     1      34.357   8.249  45.727  1.00  0.00    -0.040 C 
BRANCH  31  32
HETATM   32  C   UNL     1      34.537   8.301  44.310  1.00  0.00     0.131 A 
HETATM   33  N   UNL     1      35.393   9.127  43.629  1.00  0.00    -0.206 N 
HETATM   34  N   UNL     1      36.225  10.050  44.191  1.00  0.00    -0.177 NA
HETATM   35  C   UNL     1      35.247   8.845  42.283  1.00  0.00     0.151 A 
HETATM   36  C   UNL     1      36.928  10.697  43.315  1.00  0.00     0.139 A 
HETATM   37  C   UNL     1      36.887  10.512  41.845  1.00  0.00     0.025 A 
HETATM   38  C   UNL     1      36.042   9.587  41.377  1.00  0.00     0.054 A 
HETATM   39  N   UNL     1      34.354   7.895  42.088  1.00  0.00    -0.238 NA
HETATM   40  C   UNL     1      33.912   7.554  43.341  1.00  0.00     0.160 A 
ENDBRANCH  31  32
ENDBRANCH  25  30
ENDBRANCH   3  23
TORSDOF 7
