REMARK VINA RESULT:     -10.8      2.378      3.464
REMARK  7 active torsions:
REMARK  status: ('A' for Active; 'I' for Inactive)
REMARK    1  A    between atoms: N_5  and  C_15 
REMARK    2  A    between atoms: N_7  and  C_22 
REMARK       I    between atoms: N_7  and  C_24 
REMARK    3  A    between atoms: C_15  and  C_16 
REMARK    4  A    between atoms: C_18  and  C_23 
REMARK    5  A    between atoms: C_24  and  C_25 
REMARK    6  A    between atoms: C_28  and  C_32 
REMARK    7  A    between atoms: C_33  and  C_35 
ROOT
HETATM    1  O   UNL     1      43.331  16.136  38.497  1.00  0.00    -0.267 OA
HETATM    2  N   UNL     1      42.656  14.563  40.109  1.00  0.00    -0.323 N 
HETATM    3  C   UNL     1      42.468  15.464  39.052  1.00  0.00     0.256 C 
HETATM    4  H   UNL     1      41.849  14.043  40.443  1.00  0.00     0.169 HD
ENDROOT
BRANCH   2   5
HETATM    5  C   UNL     1      43.847  14.233  40.755  1.00  0.00     0.035 A 
HETATM    6  C   UNL     1      44.371  15.084  41.728  1.00  0.00     0.046 A 
HETATM    7  C   UNL     1      45.564  14.755  42.375  1.00  0.00     0.058 A 
HETATM    8  C   UNL     1      46.229  13.574  42.048  1.00  0.00    -0.015 A 
HETATM    9  C   UNL     1      45.705  12.722  41.076  1.00  0.00     0.012 A 
HETATM   10  C   UNL     1      44.514  13.053  40.429  1.00  0.00     0.030 A 
BRANCH   7  11
HETATM   11  C   UNL     1      46.105  15.680  43.415  1.00  0.00     0.418 C 
HETATM   12  F   UNL     1      46.317  15.079  44.623  1.00  0.00    -0.166 F 
HETATM   13  F   UNL     1      47.304  16.238  43.076  1.00  0.00    -0.166 F 
HETATM   14  F   UNL     1      45.269  16.728  43.668  1.00  0.00    -0.166 F 
ENDBRANCH   7  11
BRANCH   8  15
HETATM   15  C   UNL     1      47.517  13.196  42.733  1.00  0.00     0.311 C 
BRANCH  15  16
HETATM   16  N   UNL     1      48.568  12.869  41.772  1.00  0.00     0.096 N 
HETATM   17  C   UNL     1      49.630  12.081  42.409  1.00  0.00     0.303 C 
HETATM   18  C   UNL     1      50.735  11.739  41.401  1.00  0.00     0.302 C 
HETATM   19  N   UNL     1      51.290  12.958  40.802  1.00  0.00     0.087 N 
HETATM   20  C   UNL     1      50.228  13.747  40.167  1.00  0.00     0.302 C 
HETATM   21  C   UNL     1      52.341  12.631  39.840  1.00  0.00     0.310 C 
HETATM   22  C   UNL     1      49.124  14.088  41.174  1.00  0.00     0.303 C 
ENDBRANCH  15  16
ENDBRANCH   8  15
ENDBRANCH   2   5
BRANCH   3  23
HETATM   23  C   UNL     1      41.064  15.622  38.592  1.00  0.00     0.033 A 
HETATM   24  C   UNL     1      40.061  14.809  39.118  1.00  0.00     0.038 A 
HETATM   25  C   UNL     1      38.743  14.959  38.687  1.00  0.00     0.025 A 
HETATM   26  C   UNL     1      38.428  15.922  37.728  1.00  0.00    -0.043 A 
HETATM   27  C   UNL     1      39.431  16.736  37.202  1.00  0.00     0.009 A 
HETATM   28  C   UNL     1      37.027  16.112  37.242  1.00  0.00     0.049 C 
HETATM   29  C   UNL     1      40.749  16.585  37.633  1.00  0.00     0.017 A 
BRANCH  25  30
HETATM   30  C   UNL     1      37.731  14.111  39.241  1.00  0.00    -0.059 C 
HETATM   31  C   UNL     1      36.882  13.400  39.706  1.00  0.00    -0.040 C 
BRANCH  31  32
HETATM   32  C   UNL     1      35.872  12.553  40.259  1.00  0.00     0.131 A 
HETATM   33  N   UNL     1      35.996  11.758  41.369  1.00  0.00    -0.206 N 
HETATM   34  N   UNL     1      37.114  11.635  42.140  1.00  0.00    -0.177 NA
HETATM   35  C   UNL     1      34.785  11.114  41.547  1.00  0.00     0.151 A 
HETATM   36  C   UNL     1      36.958  10.814  43.130  1.00  0.00     0.139 A 
HETATM   37  C   UNL     1      35.729  10.052  43.455  1.00  0.00     0.025 A 
HETATM   38  C   UNL     1      34.678  10.230  42.647  1.00  0.00     0.054 A 
HETATM   39  N   UNL     1      33.918  11.463  40.617  1.00  0.00    -0.238 NA
HETATM   40  C   UNL     1      34.586  12.354  39.817  1.00  0.00     0.160 A 
ENDBRANCH  31  32
ENDBRANCH  25  30
ENDBRANCH   3  23
TORSDOF 7
