REMARK VINA RESULT:     -10.4      4.611      5.296
REMARK  7 active torsions:
REMARK  status: ('A' for Active; 'I' for Inactive)
REMARK    1  A    between atoms: N_5  and  C_15 
REMARK    2  A    between atoms: N_7  and  C_22 
REMARK       I    between atoms: N_7  and  C_24 
REMARK    3  A    between atoms: C_15  and  C_16 
REMARK    4  A    between atoms: C_18  and  C_23 
REMARK    5  A    between atoms: C_24  and  C_25 
REMARK    6  A    between atoms: C_28  and  C_32 
REMARK    7  A    between atoms: C_33  and  C_35 
ROOT
HETATM    1  O   UNL     1      40.339  14.569  38.948  1.00  0.00    -0.267 OA
HETATM    2  N   UNL     1      39.828  16.358  37.511  1.00  0.00    -0.323 N 
HETATM    3  C   UNL     1      39.534  15.287  38.366  1.00  0.00     0.256 C 
HETATM    4  H   UNL     1      39.052  16.892  37.129  1.00  0.00     0.169 HD
ENDROOT
BRANCH   2   5
HETATM    5  C   UNL     1      41.083  16.839  37.138  1.00  0.00     0.035 A 
HETATM    6  C   UNL     1      41.687  16.378  35.968  1.00  0.00     0.046 A 
HETATM    7  C   UNL     1      42.943  16.859  35.595  1.00  0.00     0.058 A 
HETATM    8  C   UNL     1      43.592  17.802  36.391  1.00  0.00    -0.015 A 
HETATM    9  C   UNL     1      42.988  18.264  37.560  1.00  0.00     0.012 A 
HETATM   10  C   UNL     1      41.733  17.782  37.933  1.00  0.00     0.030 A 
BRANCH   7  11
HETATM   11  C   UNL     1      43.570  16.353  34.338  1.00  0.00     0.418 C 
HETATM   12  F   UNL     1      44.900  16.072  34.466  1.00  0.00    -0.166 F 
HETATM   13  F   UNL     1      43.004  15.201  33.873  1.00  0.00    -0.166 F 
HETATM   14  F   UNL     1      43.480  17.247  33.312  1.00  0.00    -0.166 F 
ENDBRANCH   7  11
BRANCH   8  15
HETATM   15  C   UNL     1      44.947  18.338  36.009  1.00  0.00     0.311 C 
BRANCH  15  16
HETATM   16  N   UNL     1      44.934  19.791  35.856  1.00  0.00     0.096 N 
HETATM   17  C   UNL     1      45.110  20.169  34.448  1.00  0.00     0.303 C 
HETATM   18  C   UNL     1      45.098  21.694  34.287  1.00  0.00     0.302 C 
HETATM   19  N   UNL     1      46.137  22.315  35.118  1.00  0.00     0.087 N 
HETATM   20  C   UNL     1      45.963  21.936  36.525  1.00  0.00     0.302 C 
HETATM   21  C   UNL     1      46.123  23.768  34.966  1.00  0.00     0.310 C 
HETATM   22  C   UNL     1      45.974  20.412  36.686  1.00  0.00     0.303 C 
ENDBRANCH  15  16
ENDBRANCH   8  15
ENDBRANCH   2   5
BRANCH   3  23
HETATM   23  C   UNL     1      38.088  14.997  38.548  1.00  0.00     0.033 A 
HETATM   24  C   UNL     1      37.680  13.747  39.015  1.00  0.00     0.038 A 
HETATM   25  C   UNL     1      36.322  13.475  39.186  1.00  0.00     0.025 A 
HETATM   26  C   UNL     1      35.372  14.453  38.892  1.00  0.00    -0.043 A 
HETATM   27  C   UNL     1      35.780  15.703  38.426  1.00  0.00     0.009 A 
HETATM   28  C   UNL     1      33.909  14.198  39.064  1.00  0.00     0.049 C 
HETATM   29  C   UNL     1      37.138  15.975  38.254  1.00  0.00     0.017 A 
BRANCH  25  30
HETATM   30  C   UNL     1      35.929  12.185  39.665  1.00  0.00    -0.059 C 
HETATM   31  C   UNL     1      35.598  11.102  40.067  1.00  0.00    -0.040 C 
BRANCH  31  32
HETATM   32  C   UNL     1      35.204   9.813  40.544  1.00  0.00     0.131 A 
HETATM   33  N   UNL     1      34.903   9.483  41.839  1.00  0.00    -0.206 N 
HETATM   34  N   UNL     1      34.929  10.333  42.904  1.00  0.00    -0.177 NA
HETATM   35  C   UNL     1      34.574   8.139  41.852  1.00  0.00     0.151 A 
HETATM   36  C   UNL     1      34.599   9.759  44.019  1.00  0.00     0.139 A 
HETATM   37  C   UNL     1      34.222   8.337  44.196  1.00  0.00     0.025 A 
HETATM   38  C   UNL     1      34.224   7.571  43.099  1.00  0.00     0.054 A 
HETATM   39  N   UNL     1      34.653   7.617  40.644  1.00  0.00    -0.238 NA
HETATM   40  C   UNL     1      35.042   8.650  39.829  1.00  0.00     0.160 A 
ENDBRANCH  31  32
ENDBRANCH  25  30
ENDBRANCH   3  23
TORSDOF 7
