REMARK VINA RESULT:     -11.2      1.797      2.676
REMARK  7 active torsions:
REMARK  status: ('A' for Active; 'I' for Inactive)
REMARK    1  A    between atoms: N_5  and  C_15 
REMARK    2  A    between atoms: N_7  and  C_22 
REMARK       I    between atoms: N_7  and  C_24 
REMARK    3  A    between atoms: C_15  and  C_16 
REMARK    4  A    between atoms: C_18  and  C_23 
REMARK    5  A    between atoms: C_24  and  C_25 
REMARK    6  A    between atoms: C_28  and  C_32 
REMARK    7  A    between atoms: C_33  and  C_35 
ROOT
HETATM    1  O   UNL     1      41.220  16.293  37.985  1.00  0.00    -0.267 OA
HETATM    2  N   UNL     1      41.381  14.490  39.485  1.00  0.00    -0.323 N 
HETATM    3  C   UNL     1      40.715  15.387  38.638  1.00  0.00     0.256 C 
HETATM    4  H   UNL     1      40.834  13.761  39.934  1.00  0.00     0.169 HD
ENDROOT
BRANCH   2   5
HETATM    5  C   UNL     1      42.745  14.428  39.768  1.00  0.00     0.035 A 
HETATM    6  C   UNL     1      43.249  13.390  40.551  1.00  0.00     0.046 A 
HETATM    7  C   UNL     1      44.614  13.327  40.834  1.00  0.00     0.058 A 
HETATM    8  C   UNL     1      45.474  14.303  40.332  1.00  0.00    -0.015 A 
HETATM    9  C   UNL     1      44.971  15.342  39.548  1.00  0.00     0.012 A 
HETATM   10  C   UNL     1      43.606  15.404  39.266  1.00  0.00     0.030 A 
BRANCH   7  11
HETATM   11  C   UNL     1      45.131  12.205  41.673  1.00  0.00     0.418 C 
HETATM   12  F   UNL     1      44.169  11.604  42.433  1.00  0.00    -0.166 F 
HETATM   13  F   UNL     1      45.695  11.197  40.946  1.00  0.00    -0.166 F 
HETATM   14  F   UNL     1      46.094  12.609  42.551  1.00  0.00    -0.166 F 
ENDBRANCH   7  11
BRANCH   8  15
HETATM   15  C   UNL     1      46.952  14.257  40.622  1.00  0.00     0.311 C 
BRANCH  15  16
HETATM   16  N   UNL     1      47.672  13.436  39.651  1.00  0.00     0.096 N 
HETATM   17  C   UNL     1      48.654  12.576  40.320  1.00  0.00     0.303 C 
HETATM   18  C   UNL     1      49.411  11.716  39.301  1.00  0.00     0.302 C 
HETATM   19  N   UNL     1      50.069  12.557  38.294  1.00  0.00     0.087 N 
HETATM   20  C   UNL     1      49.088  13.420  37.626  1.00  0.00     0.302 C 
HETATM   21  C   UNL     1      50.788  11.737  37.322  1.00  0.00     0.310 C 
HETATM   22  C   UNL     1      48.330  14.279  38.645  1.00  0.00     0.303 C 
ENDBRANCH  15  16
ENDBRANCH   8  15
ENDBRANCH   2   5
BRANCH   3  23
HETATM   23  C   UNL     1      39.241  15.217  38.564  1.00  0.00     0.033 A 
HETATM   24  C   UNL     1      38.645  14.057  39.061  1.00  0.00     0.038 A 
HETATM   25  C   UNL     1      37.261  13.899  38.991  1.00  0.00     0.025 A 
HETATM   26  C   UNL     1      36.472  14.899  38.424  1.00  0.00    -0.043 A 
HETATM   27  C   UNL     1      37.067  16.059  37.927  1.00  0.00     0.009 A 
HETATM   28  C   UNL     1      34.985  14.764  38.332  1.00  0.00     0.049 C 
HETATM   29  C   UNL     1      38.451  16.217  37.997  1.00  0.00     0.017 A 
BRANCH  25  30
HETATM   30  C   UNL     1      36.674  12.700  39.507  1.00  0.00    -0.059 C 
HETATM   31  C   UNL     1      36.180  11.693  39.940  1.00  0.00    -0.040 C 
BRANCH  31  32
HETATM   32  C   UNL     1      35.594  10.495  40.454  1.00  0.00     0.131 A 
HETATM   33  N   UNL     1      35.480  10.148  41.775  1.00  0.00    -0.206 N 
HETATM   34  N   UNL     1      35.912  10.891  42.834  1.00  0.00    -0.177 NA
HETATM   35  C   UNL     1      34.853   8.916  41.821  1.00  0.00     0.151 A 
HETATM   36  C   UNL     1      35.679  10.327  43.977  1.00  0.00     0.139 A 
HETATM   37  C   UNL     1      35.019   9.017  44.191  1.00  0.00     0.025 A 
HETATM   38  C   UNL     1      34.627   8.352  43.099  1.00  0.00     0.054 A 
HETATM   39  N   UNL     1      34.571   8.479  40.610  1.00  0.00    -0.238 NA
HETATM   40  C   UNL     1      35.028   9.453  39.759  1.00  0.00     0.160 A 
ENDBRANCH  31  32
ENDBRANCH  25  30
ENDBRANCH   3  23
TORSDOF 7
