REMARK VINA RESULT:     -11.6      1.646      2.564
REMARK  7 active torsions:
REMARK  status: ('A' for Active; 'I' for Inactive)
REMARK    1  A    between atoms: N_5  and  C_15 
REMARK    2  A    between atoms: N_7  and  C_22 
REMARK       I    between atoms: N_7  and  C_24 
REMARK    3  A    between atoms: C_15  and  C_16 
REMARK    4  A    between atoms: C_18  and  C_23 
REMARK    5  A    between atoms: C_24  and  C_25 
REMARK    6  A    between atoms: C_28  and  C_32 
REMARK    7  A    between atoms: C_33  and  C_35 
ROOT
HETATM    1  O   UNL     1      40.667  16.833  39.299  1.00  0.00    -0.267 OA
HETATM    2  N   UNL     1      41.204  14.545  39.325  1.00  0.00    -0.323 N 
HETATM    3  C   UNL     1      40.356  15.652  39.190  1.00  0.00     0.256 C 
HETATM    4  H   UNL     1      40.812  13.621  39.166  1.00  0.00     0.169 HD
ENDROOT
BRANCH   2   5
HETATM    5  C   UNL     1      42.569  14.538  39.609  1.00  0.00     0.035 A 
HETATM    6  C   UNL     1      43.105  13.550  40.435  1.00  0.00     0.046 A 
HETATM    7  C   UNL     1      44.471  13.544  40.720  1.00  0.00     0.058 A 
HETATM    8  C   UNL     1      45.301  14.524  40.176  1.00  0.00    -0.015 A 
HETATM    9  C   UNL     1      44.765  15.511  39.348  1.00  0.00     0.012 A 
HETATM   10  C   UNL     1      43.399  15.518  39.065  1.00  0.00     0.030 A 
BRANCH   7  11
HETATM   11  C   UNL     1      45.023  12.475  41.605  1.00  0.00     0.418 C 
HETATM   12  F   UNL     1      44.077  11.865  42.379  1.00  0.00    -0.166 F 
HETATM   13  F   UNL     1      45.634  11.464  40.923  1.00  0.00    -0.166 F 
HETATM   14  F   UNL     1      45.959  12.950  42.476  1.00  0.00    -0.166 F 
ENDBRANCH   7  11
BRANCH   8  15
HETATM   15  C   UNL     1      46.779  14.537  40.467  1.00  0.00     0.311 C 
BRANCH  15  16
HETATM   16  N   UNL     1      47.538  13.805  39.455  1.00  0.00     0.096 N 
HETATM   17  C   UNL     1      48.489  12.881  40.085  1.00  0.00     0.303 C 
HETATM   18  C   UNL     1      49.289  12.114  39.024  1.00  0.00     0.302 C 
HETATM   19  N   UNL     1      49.991  13.041  38.128  1.00  0.00     0.087 N 
HETATM   20  C   UNL     1      49.041  13.966  37.500  1.00  0.00     0.302 C 
HETATM   21  C   UNL     1      50.750  12.309  37.116  1.00  0.00     0.310 C 
HETATM   22  C   UNL     1      48.241  14.732  38.560  1.00  0.00     0.303 C 
ENDBRANCH  15  16
ENDBRANCH   8  15
ENDBRANCH   2   5
BRANCH   3  23
HETATM   23  C   UNL     1      38.932  15.334  38.910  1.00  0.00     0.033 A 
HETATM   24  C   UNL     1      38.379  14.139  39.372  1.00  0.00     0.038 A 
HETATM   25  C   UNL     1      37.042  13.841  39.110  1.00  0.00     0.025 A 
HETATM   26  C   UNL     1      36.256  14.738  38.386  1.00  0.00    -0.043 A 
HETATM   27  C   UNL     1      36.809  15.933  37.924  1.00  0.00     0.009 A 
HETATM   28  C   UNL     1      34.819  14.453  38.086  1.00  0.00     0.049 C 
HETATM   29  C   UNL     1      38.146  16.231  38.186  1.00  0.00     0.017 A 
BRANCH  25  30
HETATM   30  C   UNL     1      36.499  12.608  39.593  1.00  0.00    -0.059 C 
HETATM   31  C   UNL     1      36.043  11.573  39.999  1.00  0.00    -0.040 C 
BRANCH  31  32
HETATM   32  C   UNL     1      35.501  10.342  40.482  1.00  0.00     0.131 A 
HETATM   33  N   UNL     1      35.322   9.993  41.795  1.00  0.00    -0.206 N 
HETATM   34  N   UNL     1      35.635  10.764  42.875  1.00  0.00    -0.177 NA
HETATM   35  C   UNL     1      34.772   8.723  41.808  1.00  0.00     0.151 A 
HETATM   36  C   UNL     1      35.362  10.190  44.004  1.00  0.00     0.139 A 
HETATM   37  C   UNL     1      34.773   8.841  44.184  1.00  0.00     0.025 A 
HETATM   38  C   UNL     1      34.497   8.150  43.073  1.00  0.00     0.054 A 
HETATM   39  N   UNL     1      34.598   8.266  40.584  1.00  0.00    -0.238 NA
HETATM   40  C   UNL     1      35.047   9.265  39.759  1.00  0.00     0.160 A 
ENDBRANCH  31  32
ENDBRANCH  25  30
ENDBRANCH   3  23
TORSDOF 7
