REMARK VINA RESULT:     -10.3     10.308     16.034
REMARK  7 active torsions:
REMARK  status: ('A' for Active; 'I' for Inactive)
REMARK    1  A    between atoms: N_5  and  C_15 
REMARK    2  A    between atoms: N_7  and  C_22 
REMARK       I    between atoms: N_7  and  C_24 
REMARK    3  A    between atoms: C_15  and  C_16 
REMARK    4  A    between atoms: C_18  and  C_23 
REMARK    5  A    between atoms: C_24  and  C_25 
REMARK    6  A    between atoms: C_28  and  C_32 
REMARK    7  A    between atoms: C_33  and  C_35 
ROOT
HETATM    1  O   UNL     1      36.797   4.790  49.083  1.00  0.00    -0.267 OA
HETATM    2  N   UNL     1      35.357   4.458  50.912  1.00  0.00    -0.323 N 
HETATM    3  C   UNL     1      35.853   5.132  49.787  1.00  0.00     0.256 C 
HETATM    4  H   UNL     1      34.538   4.841  51.376  1.00  0.00     0.169 HD
ENDROOT
BRANCH   2   5
HETATM    5  C   UNL     1      35.818   3.267  51.472  1.00  0.00     0.035 A 
HETATM    6  C   UNL     1      36.250   3.241  52.798  1.00  0.00     0.046 A 
HETATM    7  C   UNL     1      36.711   2.049  53.358  1.00  0.00     0.058 A 
HETATM    8  C   UNL     1      36.739   0.884  52.593  1.00  0.00    -0.015 A 
HETATM    9  C   UNL     1      36.306   0.909  51.267  1.00  0.00     0.012 A 
HETATM   10  C   UNL     1      35.846   2.101  50.706  1.00  0.00     0.030 A 
BRANCH   7  11
HETATM   11  C   UNL     1      37.167   2.044  54.780  1.00  0.00     0.418 C 
HETATM   12  F   UNL     1      38.478   1.696  54.933  1.00  0.00    -0.166 F 
HETATM   13  F   UNL     1      37.045   3.257  55.395  1.00  0.00    -0.166 F 
HETATM   14  F   UNL     1      36.462   1.168  55.553  1.00  0.00    -0.166 F 
ENDBRANCH   7  11
BRANCH   8  15
HETATM   15  C   UNL     1      37.231  -0.415  53.175  1.00  0.00     0.311 C 
BRANCH  15  16
HETATM   16  N   UNL     1      37.781  -1.298  52.149  1.00  0.00     0.096 N 
HETATM   17  C   UNL     1      37.325  -2.678  52.349  1.00  0.00     0.303 C 
HETATM   18  C   UNL     1      37.904  -3.606  51.273  1.00  0.00     0.302 C 
HETATM   19  N   UNL     1      39.370  -3.546  51.266  1.00  0.00     0.087 N 
HETATM   20  C   UNL     1      39.827  -2.165  51.068  1.00  0.00     0.302 C 
HETATM   21  C   UNL     1      39.920  -4.428  50.239  1.00  0.00     0.310 C 
HETATM   22  C   UNL     1      39.248  -1.238  52.143  1.00  0.00     0.303 C 
ENDBRANCH  15  16
ENDBRANCH   8  15
ENDBRANCH   2   5
BRANCH   3  23
HETATM   23  C   UNL     1      35.162   6.403  49.450  1.00  0.00     0.033 A 
HETATM   24  C   UNL     1      35.215   6.903  48.149  1.00  0.00     0.038 A 
HETATM   25  C   UNL     1      34.565   8.096  47.833  1.00  0.00     0.025 A 
HETATM   26  C   UNL     1      33.861   8.790  48.818  1.00  0.00    -0.043 A 
HETATM   27  C   UNL     1      33.808   8.290  50.119  1.00  0.00     0.009 A 
HETATM   28  C   UNL     1      33.153  10.071  48.516  1.00  0.00     0.049 C 
HETATM   29  C   UNL     1      34.459   7.097  50.435  1.00  0.00     0.017 A 
BRANCH  25  30
HETATM   30  C   UNL     1      34.635   8.590  46.491  1.00  0.00    -0.059 C 
HETATM   31  C   UNL     1      34.694   9.003  45.364  1.00  0.00    -0.040 C 
BRANCH  31  32
HETATM   32  C   UNL     1      34.763   9.496  44.024  1.00  0.00     0.131 A 
HETATM   33  N   UNL     1      34.586   8.764  42.879  1.00  0.00    -0.206 N 
HETATM   34  N   UNL     1      34.314   7.430  42.821  1.00  0.00    -0.177 NA
HETATM   35  C   UNL     1      34.738   9.632  41.813  1.00  0.00     0.151 A 
HETATM   36  C   UNL     1      34.195   6.990  41.607  1.00  0.00     0.139 A 
HETATM   37  C   UNL     1      34.327   7.789  40.366  1.00  0.00     0.025 A 
HETATM   38  C   UNL     1      34.597   9.091  40.513  1.00  0.00     0.054 A 
HETATM   39  N   UNL     1      34.997  10.857  42.227  1.00  0.00    -0.238 NA
HETATM   40  C   UNL     1      35.013  10.778  43.596  1.00  0.00     0.160 A 
ENDBRANCH  31  32
ENDBRANCH  25  30
ENDBRANCH   3  23
TORSDOF 7
