REMARK VINA RESULT:     -11.9      0.000      0.000
REMARK  7 active torsions:
REMARK  status: ('A' for Active; 'I' for Inactive)
REMARK    1  A    between atoms: N_5  and  C_15 
REMARK    2  A    between atoms: N_7  and  C_22 
REMARK       I    between atoms: N_7  and  C_24 
REMARK    3  A    between atoms: C_15  and  C_16 
REMARK    4  A    between atoms: C_18  and  C_23 
REMARK    5  A    between atoms: C_24  and  C_25 
REMARK    6  A    between atoms: C_28  and  C_32 
REMARK    7  A    between atoms: C_33  and  C_35 
ROOT
HETATM    1  O   UNL     1      40.599  16.833  39.216  1.00  0.00    -0.267 OA
HETATM    2  N   UNL     1      41.102  14.540  39.337  1.00  0.00    -0.323 N 
HETATM    3  C   UNL     1      40.268  15.653  39.170  1.00  0.00     0.256 C 
HETATM    4  H   UNL     1      40.693  13.615  39.232  1.00  0.00     0.169 HD
ENDROOT
BRANCH   2   5
HETATM    5  C   UNL     1      42.475  14.525  39.588  1.00  0.00     0.035 A 
HETATM    6  C   UNL     1      43.057  13.422  40.213  1.00  0.00     0.046 A 
HETATM    7  C   UNL     1      44.430  13.407  40.464  1.00  0.00     0.058 A 
HETATM    8  C   UNL     1      45.219  14.494  40.089  1.00  0.00    -0.015 A 
HETATM    9  C   UNL     1      44.636  15.597  39.463  1.00  0.00     0.012 A 
HETATM   10  C   UNL     1      43.264  15.612  39.213  1.00  0.00     0.030 A 
BRANCH   7  11
HETATM   11  C   UNL     1      45.033  12.216  41.132  1.00  0.00     0.418 C 
HETATM   12  F   UNL     1      45.937  11.552  40.354  1.00  0.00    -0.166 F 
HETATM   13  F   UNL     1      45.703  12.517  42.282  1.00  0.00    -0.166 F 
HETATM   14  F   UNL     1      44.099  11.285  41.484  1.00  0.00    -0.166 F 
ENDBRANCH   7  11
BRANCH   8  15
HETATM   15  C   UNL     1      46.703  14.501  40.348  1.00  0.00     0.311 C 
BRANCH  15  16
HETATM   16  N   UNL     1      47.066  15.447  41.402  1.00  0.00     0.096 N 
HETATM   17  C   UNL     1      47.864  16.552  40.858  1.00  0.00     0.303 C 
HETATM   18  C   UNL     1      48.248  17.543  41.963  1.00  0.00     0.302 C 
HETATM   19  N   UNL     1      48.978  16.866  43.042  1.00  0.00     0.087 N 
HETATM   20  C   UNL     1      48.182  15.759  43.584  1.00  0.00     0.302 C 
HETATM   21  C   UNL     1      49.341  17.811  44.096  1.00  0.00     0.310 C 
HETATM   22  C   UNL     1      47.797  14.769  42.479  1.00  0.00     0.303 C 
ENDBRANCH  15  16
ENDBRANCH   8  15
ENDBRANCH   2   5
BRANCH   3  23
HETATM   23  C   UNL     1      38.833  15.344  38.940  1.00  0.00     0.033 A 
HETATM   24  C   UNL     1      38.296  14.138  39.393  1.00  0.00     0.038 A 
HETATM   25  C   UNL     1      36.949  13.850  39.178  1.00  0.00     0.025 A 
HETATM   26  C   UNL     1      36.137  14.766  38.510  1.00  0.00    -0.043 A 
HETATM   27  C   UNL     1      36.673  15.972  38.058  1.00  0.00     0.009 A 
HETATM   28  C   UNL     1      34.688  14.491  38.262  1.00  0.00     0.049 C 
HETATM   29  C   UNL     1      38.020  16.261  38.273  1.00  0.00     0.017 A 
BRANCH  25  30
HETATM   30  C   UNL     1      36.422  12.605  39.650  1.00  0.00    -0.059 C 
HETATM   31  C   UNL     1      35.980  11.561  40.047  1.00  0.00    -0.040 C 
BRANCH  31  32
HETATM   32  C   UNL     1      35.454  10.318  40.519  1.00  0.00     0.131 A 
HETATM   33  N   UNL     1      35.241   9.970  41.827  1.00  0.00    -0.206 N 
HETATM   34  N   UNL     1      35.498  10.753  42.912  1.00  0.00    -0.177 NA
HETATM   35  C   UNL     1      34.723   8.687  41.828  1.00  0.00     0.151 A 
HETATM   36  C   UNL     1      35.203  10.176  44.034  1.00  0.00     0.139 A 
HETATM   37  C   UNL     1      34.644   8.814  44.201  1.00  0.00     0.025 A 
HETATM   38  C   UNL     1      34.422   8.112  43.085  1.00  0.00     0.054 A 
HETATM   39  N   UNL     1      34.602   8.220  40.601  1.00  0.00    -0.238 NA
HETATM   40  C   UNL     1      35.053   9.227  39.786  1.00  0.00     0.160 A 
ENDBRANCH  31  32
ENDBRANCH  25  30
ENDBRANCH   3  23
TORSDOF 7
