REMARK VINA RESULT:     -11.1      2.079      3.006
REMARK  7 active torsions:
REMARK  status: ('A' for Active; 'I' for Inactive)
REMARK    1  A    between atoms: N_5  and  C_15 
REMARK    2  A    between atoms: N_7  and  C_22 
REMARK       I    between atoms: N_7  and  C_24 
REMARK    3  A    between atoms: C_15  and  C_16 
REMARK    4  A    between atoms: C_18  and  C_23 
REMARK    5  A    between atoms: C_24  and  C_25 
REMARK    6  A    between atoms: C_28  and  C_32 
REMARK    7  A    between atoms: C_33  and  C_35 
ROOT
HETATM    1  O   UNL     1      40.617  16.374  37.562  1.00  0.00    -0.267 OA
HETATM    2  N   UNL     1      41.017  15.123  39.512  1.00  0.00    -0.323 N 
HETATM    3  C   UNL     1      40.237  15.644  38.470  1.00  0.00     0.256 C 
HETATM    4  H   UNL     1      40.572  14.495  40.175  1.00  0.00     0.169 HD
ENDROOT
BRANCH   2   5
HETATM    5  C   UNL     1      42.379  15.315  39.743  1.00  0.00     0.035 A 
HETATM    6  C   UNL     1      43.215  15.708  38.697  1.00  0.00     0.046 A 
HETATM    7  C   UNL     1      44.578  15.900  38.928  1.00  0.00     0.058 A 
HETATM    8  C   UNL     1      45.103  15.701  40.204  1.00  0.00    -0.015 A 
HETATM    9  C   UNL     1      44.267  15.310  41.250  1.00  0.00     0.012 A 
HETATM   10  C   UNL     1      42.905  15.117  41.019  1.00  0.00     0.030 A 
BRANCH   7  11
HETATM   11  C   UNL     1      45.454  16.322  37.794  1.00  0.00     0.418 C 
HETATM   12  F   UNL     1      44.763  16.639  36.660  1.00  0.00    -0.166 F 
HETATM   13  F   UNL     1      46.212  17.423  38.071  1.00  0.00    -0.166 F 
HETATM   14  F   UNL     1      46.338  15.350  37.426  1.00  0.00    -0.166 F 
ENDBRANCH   7  11
BRANCH   8  15
HETATM   15  C   UNL     1      46.571  15.904  40.478  1.00  0.00     0.311 C 
BRANCH  15  16
HETATM   16  N   UNL     1      47.231  14.655  40.853  1.00  0.00     0.096 N 
HETATM   17  C   UNL     1      47.729  14.721  42.232  1.00  0.00     0.303 C 
HETATM   18  C   UNL     1      48.425  13.412  42.625  1.00  0.00     0.302 C 
HETATM   19  N   UNL     1      49.520  13.104  41.698  1.00  0.00     0.087 N 
HETATM   20  C   UNL     1      49.023  13.039  40.319  1.00  0.00     0.302 C 
HETATM   21  C   UNL     1      50.180  11.855  42.071  1.00  0.00     0.310 C 
HETATM   22  C   UNL     1      48.328  14.348  39.926  1.00  0.00     0.303 C 
ENDBRANCH  15  16
ENDBRANCH   8  15
ENDBRANCH   2   5
BRANCH   3  23
HETATM   23  C   UNL     1      38.797  15.279  38.510  1.00  0.00     0.033 A 
HETATM   24  C   UNL     1      38.372  14.196  39.280  1.00  0.00     0.038 A 
HETATM   25  C   UNL     1      37.020  13.855  39.318  1.00  0.00     0.025 A 
HETATM   26  C   UNL     1      36.092  14.595  38.585  1.00  0.00    -0.043 A 
HETATM   27  C   UNL     1      36.518  15.678  37.814  1.00  0.00     0.009 A 
HETATM   28  C   UNL     1      34.636  14.258  38.601  1.00  0.00     0.049 C 
HETATM   29  C   UNL     1      37.870  16.019  37.777  1.00  0.00     0.017 A 
BRANCH  25  30
HETATM   30  C   UNL     1      36.609  12.739  40.115  1.00  0.00    -0.059 C 
HETATM   31  C   UNL     1      36.264  11.802  40.783  1.00  0.00    -0.040 C 
BRANCH  31  32
HETATM   32  C   UNL     1      35.854  10.688  41.580  1.00  0.00     0.131 A 
HETATM   33  N   UNL     1      35.191   9.573  41.137  1.00  0.00    -0.206 N 
HETATM   34  N   UNL     1      34.803   9.334  39.852  1.00  0.00    -0.177 NA
HETATM   35  C   UNL     1      34.995   8.753  42.234  1.00  0.00     0.151 A 
HETATM   36  C   UNL     1      34.191   8.200  39.711  1.00  0.00     0.139 A 
HETATM   37  C   UNL     1      33.906   7.216  40.782  1.00  0.00     0.025 A 
HETATM   38  C   UNL     1      34.320   7.529  42.015  1.00  0.00     0.054 A 
HETATM   39  N   UNL     1      35.496   9.291  43.328  1.00  0.00    -0.238 NA
HETATM   40  C   UNL     1      36.031  10.489  42.928  1.00  0.00     0.160 A 
ENDBRANCH  31  32
ENDBRANCH  25  30
ENDBRANCH   3  23
TORSDOF 7
