REMARK VINA RESULT:     -10.3      4.955      5.835
REMARK  7 active torsions:
REMARK  status: ('A' for Active; 'I' for Inactive)
REMARK    1  A    between atoms: N_5  and  C_15 
REMARK    2  A    between atoms: N_7  and  C_22 
REMARK       I    between atoms: N_7  and  C_24 
REMARK    3  A    between atoms: C_15  and  C_16 
REMARK    4  A    between atoms: C_18  and  C_23 
REMARK    5  A    between atoms: C_24  and  C_25 
REMARK    6  A    between atoms: C_28  and  C_32 
REMARK    7  A    between atoms: C_33  and  C_35 
ROOT
HETATM    1  O   UNL     1      40.665  15.010  38.494  1.00  0.00    -0.267 OA
HETATM    2  N   UNL     1      39.981  16.691  37.000  1.00  0.00    -0.323 N 
HETATM    3  C   UNL     1      39.792  15.646  37.914  1.00  0.00     0.256 C 
HETATM    4  H   UNL     1      39.157  17.155  36.626  1.00  0.00     0.169 HD
ENDROOT
BRANCH   2   5
HETATM    5  C   UNL     1      41.186  17.236  36.555  1.00  0.00     0.035 A 
HETATM    6  C   UNL     1      41.520  18.550  36.880  1.00  0.00     0.046 A 
HETATM    7  C   UNL     1      42.725  19.095  36.435  1.00  0.00     0.058 A 
HETATM    8  C   UNL     1      43.595  18.324  35.666  1.00  0.00    -0.015 A 
HETATM    9  C   UNL     1      43.262  17.009  35.341  1.00  0.00     0.012 A 
HETATM   10  C   UNL     1      42.057  16.465  35.785  1.00  0.00     0.030 A 
BRANCH   7  11
HETATM   11  C   UNL     1      43.062  20.504  36.797  1.00  0.00     0.418 C 
HETATM   12  F   UNL     1      42.296  21.006  37.810  1.00  0.00    -0.166 F 
HETATM   13  F   UNL     1      44.353  20.665  37.211  1.00  0.00    -0.166 F 
HETATM   14  F   UNL     1      42.901  21.366  35.752  1.00  0.00    -0.166 F 
ENDBRANCH   7  11
BRANCH   8  15
HETATM   15  C   UNL     1      44.903  18.889  35.174  1.00  0.00     0.311 C 
BRANCH  15  16
HETATM   16  N   UNL     1      45.728  17.869  34.530  1.00  0.00     0.096 N 
HETATM   17  C   UNL     1      46.955  17.629  35.299  1.00  0.00     0.303 C 
HETATM   18  C   UNL     1      47.822  16.560  34.623  1.00  0.00     0.302 C 
HETATM   19  N   UNL     1      48.148  16.947  33.245  1.00  0.00     0.087 N 
HETATM   20  C   UNL     1      46.922  17.190  32.477  1.00  0.00     0.302 C 
HETATM   21  C   UNL     1      48.973  15.927  32.601  1.00  0.00     0.310 C 
HETATM   22  C   UNL     1      46.055  18.257  33.153  1.00  0.00     0.303 C 
ENDBRANCH  15  16
ENDBRANCH   8  15
ENDBRANCH   2   5
BRANCH   3  23
HETATM   23  C   UNL     1      38.377  15.270  38.168  1.00  0.00     0.033 A 
HETATM   24  C   UNL     1      38.080  14.167  38.969  1.00  0.00     0.038 A 
HETATM   25  C   UNL     1      36.751  13.816  39.208  1.00  0.00     0.025 A 
HETATM   26  C   UNL     1      35.719  14.567  38.646  1.00  0.00    -0.043 A 
HETATM   27  C   UNL     1      36.016  15.670  37.845  1.00  0.00     0.009 A 
HETATM   28  C   UNL     1      34.283  14.221  38.881  1.00  0.00     0.049 C 
HETATM   29  C   UNL     1      37.344  16.021  37.606  1.00  0.00     0.017 A 
BRANCH  25  30
HETATM   30  C   UNL     1      36.472  12.680  40.033  1.00  0.00    -0.059 C 
HETATM   31  C   UNL     1      36.238  11.725  40.724  1.00  0.00    -0.040 C 
BRANCH  31  32
HETATM   32  C   UNL     1      35.960  10.590  41.547  1.00  0.00     0.131 A 
HETATM   33  N   UNL     1      35.268   9.467  41.176  1.00  0.00    -0.206 N 
HETATM   34  N   UNL     1      34.719   9.238  39.949  1.00  0.00    -0.177 NA
HETATM   35  C   UNL     1      35.236   8.626  42.274  1.00  0.00     0.151 A 
HETATM   36  C   UNL     1      34.119   8.093  39.869  1.00  0.00     0.139 A 
HETATM   37  C   UNL     1      33.998   7.086  40.950  1.00  0.00     0.025 A 
HETATM   38  C   UNL     1      34.564   7.390  42.123  1.00  0.00     0.054 A 
HETATM   39  N   UNL     1      35.866   9.160  43.302  1.00  0.00    -0.238 NA
HETATM   40  C   UNL     1      36.317  10.376  42.857  1.00  0.00     0.160 A 
ENDBRANCH  31  32
ENDBRANCH  25  30
ENDBRANCH   3  23
TORSDOF 7
