REMARK VINA RESULT:     -11.4      2.136      3.053
REMARK  7 active torsions:
REMARK  status: ('A' for Active; 'I' for Inactive)
REMARK    1  A    between atoms: N_5  and  C_15 
REMARK    2  A    between atoms: N_7  and  C_22 
REMARK       I    between atoms: N_7  and  C_24 
REMARK    3  A    between atoms: C_15  and  C_16 
REMARK    4  A    between atoms: C_18  and  C_23 
REMARK    5  A    between atoms: C_24  and  C_25 
REMARK    6  A    between atoms: C_28  and  C_32 
REMARK    7  A    between atoms: C_33  and  C_35 
ROOT
HETATM    1  O   UNL     1      40.311  16.751  37.799  1.00  0.00    -0.267 OA
HETATM    2  N   UNL     1      40.864  15.108  39.386  1.00  0.00    -0.323 N 
HETATM    3  C   UNL     1      40.009  15.816  38.532  1.00  0.00     0.256 C 
HETATM    4  H   UNL     1      40.479  14.325  39.907  1.00  0.00     0.169 HD
ENDROOT
BRANCH   2   5
HETATM    5  C   UNL     1      42.230  15.304  39.590  1.00  0.00     0.035 A 
HETATM    6  C   UNL     1      43.047  15.685  38.525  1.00  0.00     0.046 A 
HETATM    7  C   UNL     1      44.413  15.882  38.728  1.00  0.00     0.058 A 
HETATM    8  C   UNL     1      44.962  15.699  39.997  1.00  0.00    -0.015 A 
HETATM    9  C   UNL     1      44.146  15.319  41.063  1.00  0.00     0.012 A 
HETATM   10  C   UNL     1      42.780  15.122  40.858  1.00  0.00     0.030 A 
BRANCH   7  11
HETATM   11  C   UNL     1      45.267  16.291  37.574  1.00  0.00     0.418 C 
HETATM   12  F   UNL     1      45.762  17.559  37.683  1.00  0.00    -0.166 F 
HETATM   13  F   UNL     1      46.361  15.494  37.396  1.00  0.00    -0.166 F 
HETATM   14  F   UNL     1      44.593  16.260  36.388  1.00  0.00    -0.166 F 
ENDBRANCH   7  11
BRANCH   8  15
HETATM   15  C   UNL     1      46.434  15.907  40.242  1.00  0.00     0.311 C 
BRANCH  15  16
HETATM   16  N   UNL     1      47.019  14.803  41.001  1.00  0.00     0.096 N 
HETATM   17  C   UNL     1      48.268  15.221  41.649  1.00  0.00     0.303 C 
HETATM   18  C   UNL     1      48.884  14.063  42.444  1.00  0.00     0.302 C 
HETATM   19  N   UNL     1      49.120  12.902  41.577  1.00  0.00     0.087 N 
HETATM   20  C   UNL     1      47.873  12.485  40.926  1.00  0.00     0.302 C 
HETATM   21  C   UNL     1      49.705  11.799  42.335  1.00  0.00     0.310 C 
HETATM   22  C   UNL     1      47.256  13.643  40.133  1.00  0.00     0.303 C 
ENDBRANCH  15  16
ENDBRANCH   8  15
ENDBRANCH   2   5
BRANCH   3  23
HETATM   23  C   UNL     1      38.587  15.386  38.554  1.00  0.00     0.033 A 
HETATM   24  C   UNL     1      38.203  14.282  39.317  1.00  0.00     0.038 A 
HETATM   25  C   UNL     1      36.868  13.879  39.338  1.00  0.00     0.025 A 
HETATM   26  C   UNL     1      35.915  14.580  38.598  1.00  0.00    -0.043 A 
HETATM   27  C   UNL     1      36.299  15.684  37.836  1.00  0.00     0.009 A 
HETATM   28  C   UNL     1      34.475  14.178  38.597  1.00  0.00     0.049 C 
HETATM   29  C   UNL     1      37.634  16.086  37.814  1.00  0.00     0.017 A 
BRANCH  25  30
HETATM   30  C   UNL     1      36.499  12.743  40.127  1.00  0.00    -0.059 C 
HETATM   31  C   UNL     1      36.189  11.789  40.788  1.00  0.00    -0.040 C 
BRANCH  31  32
HETATM   32  C   UNL     1      35.821  10.653  41.575  1.00  0.00     0.131 A 
HETATM   33  N   UNL     1      35.162   9.537  41.132  1.00  0.00    -0.206 N 
HETATM   34  N   UNL     1      34.738   9.316  39.855  1.00  0.00    -0.177 NA
HETATM   35  C   UNL     1      35.013   8.693  42.218  1.00  0.00     0.151 A 
HETATM   36  C   UNL     1      34.140   8.175  39.711  1.00  0.00     0.139 A 
HETATM   37  C   UNL     1      33.904   7.167  40.771  1.00  0.00     0.025 A 
HETATM   38  C   UNL     1      34.351   7.463  41.996  1.00  0.00     0.054 A 
HETATM   39  N   UNL     1      35.540   9.219  43.307  1.00  0.00    -0.238 NA
HETATM   40  C   UNL     1      36.043  10.433  42.914  1.00  0.00     0.160 A 
ENDBRANCH  31  32
ENDBRANCH  25  30
ENDBRANCH   3  23
TORSDOF 7
