REMARK VINA RESULT:     -10.3      4.525      5.268
REMARK  7 active torsions:
REMARK  status: ('A' for Active; 'I' for Inactive)
REMARK    1  A    between atoms: N_5  and  C_15 
REMARK    2  A    between atoms: N_7  and  C_22 
REMARK       I    between atoms: N_7  and  C_24 
REMARK    3  A    between atoms: C_15  and  C_16 
REMARK    4  A    between atoms: C_18  and  C_23 
REMARK    5  A    between atoms: C_24  and  C_25 
REMARK    6  A    between atoms: C_28  and  C_32 
REMARK    7  A    between atoms: C_33  and  C_35 
ROOT
HETATM    1  O   UNL     1      40.498  16.174  39.122  1.00  0.00    -0.267 OA
HETATM    2  N   UNL     1      40.169  16.523  36.821  1.00  0.00    -0.323 N 
HETATM    3  C   UNL     1      39.798  16.140  38.117  1.00  0.00     0.256 C 
HETATM    4  H   UNL     1      39.465  16.478  36.089  1.00  0.00     0.169 HD
ENDROOT
BRANCH   2   5
HETATM    5  C   UNL     1      41.399  17.022  36.392  1.00  0.00     0.035 A 
HETATM    6  C   UNL     1      41.793  18.310  36.753  1.00  0.00     0.046 A 
HETATM    7  C   UNL     1      43.024  18.809  36.323  1.00  0.00     0.058 A 
HETATM    8  C   UNL     1      43.859  18.019  35.535  1.00  0.00    -0.015 A 
HETATM    9  C   UNL     1      43.465  16.730  35.175  1.00  0.00     0.012 A 
HETATM   10  C   UNL     1      42.235  16.232  35.603  1.00  0.00     0.030 A 
BRANCH   7  11
HETATM   11  C   UNL     1      43.426  20.191  36.723  1.00  0.00     0.418 C 
HETATM   12  F   UNL     1      44.681  20.261  37.256  1.00  0.00    -0.166 F 
HETATM   13  F   UNL     1      43.426  21.079  35.687  1.00  0.00    -0.166 F 
HETATM   14  F   UNL     1      42.596  20.725  37.666  1.00  0.00    -0.166 F 
ENDBRANCH   7  11
BRANCH   8  15
HETATM   15  C   UNL     1      45.192  18.535  35.060  1.00  0.00     0.311 C 
BRANCH  15  16
HETATM   16  N   UNL     1      46.286  17.642  35.439  1.00  0.00     0.096 N 
HETATM   17  C   UNL     1      47.193  18.301  36.387  1.00  0.00     0.303 C 
HETATM   18  C   UNL     1      48.342  17.366  36.782  1.00  0.00     0.302 C 
HETATM   19  N   UNL     1      49.080  16.915  35.596  1.00  0.00     0.087 N 
HETATM   20  C   UNL     1      48.174  16.259  34.647  1.00  0.00     0.302 C 
HETATM   21  C   UNL     1      50.173  16.022  35.974  1.00  0.00     0.310 C 
HETATM   22  C   UNL     1      47.025  17.193  34.252  1.00  0.00     0.303 C 
ENDBRANCH  15  16
ENDBRANCH   8  15
ENDBRANCH   2   5
BRANCH   3  23
HETATM   23  C   UNL     1      38.413  15.618  38.255  1.00  0.00     0.033 A 
HETATM   24  C   UNL     1      38.165  14.499  39.050  1.00  0.00     0.038 A 
HETATM   25  C   UNL     1      36.865  14.010  39.180  1.00  0.00     0.025 A 
HETATM   26  C   UNL     1      35.813  14.639  38.515  1.00  0.00    -0.043 A 
HETATM   27  C   UNL     1      36.061  15.758  37.720  1.00  0.00     0.009 A 
HETATM   28  C   UNL     1      34.407  14.143  38.631  1.00  0.00     0.049 C 
HETATM   29  C   UNL     1      37.361  16.247  37.590  1.00  0.00     0.017 A 
BRANCH  25  30
HETATM   30  C   UNL     1      36.636  12.859  40.000  1.00  0.00    -0.059 C 
HETATM   31  C   UNL     1      36.444  11.894  40.690  1.00  0.00    -0.040 C 
BRANCH  31  32
HETATM   32  C   UNL     1      36.215  10.745  41.509  1.00  0.00     0.131 A 
HETATM   33  N   UNL     1      35.485   9.637  41.169  1.00  0.00    -0.206 N 
HETATM   34  N   UNL     1      34.844   9.438  39.982  1.00  0.00    -0.177 NA
HETATM   35  C   UNL     1      35.524   8.775  42.251  1.00  0.00     0.151 A 
HETATM   36  C   UNL     1      34.226   8.300  39.925  1.00  0.00     0.139 A 
HETATM   37  C   UNL     1      34.174   7.274  40.993  1.00  0.00     0.025 A 
HETATM   38  C   UNL     1      34.829   7.549  42.126  1.00  0.00     0.054 A 
HETATM   39  N   UNL     1      36.234   9.281  43.239  1.00  0.00    -0.238 NA
HETATM   40  C   UNL     1      36.666  10.501  42.785  1.00  0.00     0.160 A 
ENDBRANCH  31  32
ENDBRANCH  25  30
ENDBRANCH   3  23
TORSDOF 7
