REMARK VINA RESULT:      -9.9      4.311     11.298
REMARK  7 active torsions:
REMARK  status: ('A' for Active; 'I' for Inactive)
REMARK    1  A    between atoms: N_5  and  C_15 
REMARK    2  A    between atoms: N_7  and  C_22 
REMARK       I    between atoms: N_7  and  C_24 
REMARK    3  A    between atoms: C_15  and  C_16 
REMARK    4  A    between atoms: C_18  and  C_23 
REMARK    5  A    between atoms: C_24  and  C_25 
REMARK    6  A    between atoms: C_28  and  C_32 
REMARK    7  A    between atoms: C_33  and  C_35 
ROOT
HETATM    1  O   UNL     1      35.778  10.503  39.633  1.00  0.00    -0.267 OA
HETATM    2  N   UNL     1      35.520  11.701  41.639  1.00  0.00    -0.323 N 
HETATM    3  C   UNL     1      35.780  11.550  40.270  1.00  0.00     0.256 C 
HETATM    4  H   UNL     1      35.518  12.641  42.025  1.00  0.00     0.169 HD
ENDROOT
BRANCH   2   5
HETATM    5  C   UNL     1      35.206  10.709  42.568  1.00  0.00     0.035 A 
HETATM    6  C   UNL     1      34.741   9.468  42.132  1.00  0.00     0.046 A 
HETATM    7  C   UNL     1      34.425   8.475  43.061  1.00  0.00     0.058 A 
HETATM    8  C   UNL     1      34.577   8.724  44.425  1.00  0.00    -0.015 A 
HETATM    9  C   UNL     1      35.043   9.964  44.861  1.00  0.00     0.012 A 
HETATM   10  C   UNL     1      35.357  10.957  43.932  1.00  0.00     0.030 A 
BRANCH   7  11
HETATM   11  C   UNL     1      33.931   7.154  42.571  1.00  0.00     0.418 C 
HETATM   12  F   UNL     1      32.759   6.761  43.151  1.00  0.00    -0.166 F 
HETATM   13  F   UNL     1      33.693   7.126  41.227  1.00  0.00    -0.166 F 
HETATM   14  F   UNL     1      34.816   6.143  42.810  1.00  0.00    -0.166 F 
ENDBRANCH   7  11
BRANCH   8  15
HETATM   15  C   UNL     1      34.245   7.668  45.446  1.00  0.00     0.311 C 
BRANCH  15  16
HETATM   16  N   UNL     1      34.562   8.107  46.804  1.00  0.00     0.096 N 
HETATM   17  C   UNL     1      34.608   6.964  47.724  1.00  0.00     0.303 C 
HETATM   18  C   UNL     1      34.938   7.424  49.149  1.00  0.00     0.302 C 
HETATM   19  N   UNL     1      33.964   8.418  49.616  1.00  0.00     0.087 N 
HETATM   20  C   UNL     1      33.915   9.560  48.695  1.00  0.00     0.302 C 
HETATM   21  C   UNL     1      34.281   8.857  50.973  1.00  0.00     0.310 C 
HETATM   22  C   UNL     1      33.586   9.100  47.271  1.00  0.00     0.303 C 
ENDBRANCH  15  16
ENDBRANCH   8  15
ENDBRANCH   2   5
BRANCH   3  23
HETATM   23  C   UNL     1      36.115  12.803  39.544  1.00  0.00     0.033 A 
HETATM   24  C   UNL     1      37.432  13.262  39.515  1.00  0.00     0.038 A 
HETATM   25  C   UNL     1      37.746  14.437  38.832  1.00  0.00     0.025 A 
HETATM   26  C   UNL     1      36.744  15.153  38.178  1.00  0.00    -0.043 A 
HETATM   27  C   UNL     1      35.427  14.694  38.207  1.00  0.00     0.009 A 
HETATM   28  C   UNL     1      37.043  16.417  37.436  1.00  0.00     0.049 C 
HETATM   29  C   UNL     1      35.113  13.519  38.890  1.00  0.00     0.017 A 
BRANCH  25  30
HETATM   30  C   UNL     1      39.105  14.889  38.818  1.00  0.00    -0.059 C 
HETATM   31  C   UNL     1      40.245  15.267  38.806  1.00  0.00    -0.040 C 
BRANCH  31  32
HETATM   32  C   UNL     1      41.602  15.717  38.792  1.00  0.00     0.131 A 
HETATM   33  N   UNL     1      42.675  15.082  39.359  1.00  0.00    -0.206 N 
HETATM   34  N   UNL     1      42.633  13.904  40.044  1.00  0.00    -0.177 NA
HETATM   35  C   UNL     1      43.790  15.861  39.107  1.00  0.00     0.151 A 
HETATM   36  C   UNL     1      43.795  13.528  40.477  1.00  0.00     0.139 A 
HETATM   37  C   UNL     1      45.078  14.248  40.288  1.00  0.00     0.025 A 
HETATM   38  C   UNL     1      45.030  15.397  39.606  1.00  0.00     0.054 A 
HETATM   39  N   UNL     1      43.473  16.939  38.417  1.00  0.00    -0.238 NA
HETATM   40  C   UNL     1      42.119  16.854  38.218  1.00  0.00     0.160 A 
ENDBRANCH  31  32
ENDBRANCH  25  30
ENDBRANCH   3  23
TORSDOF 7
