REMARK VINA RESULT:     -11.1      1.980      2.742
REMARK  7 active torsions:
REMARK  status: ('A' for Active; 'I' for Inactive)
REMARK    1  A    between atoms: N_5  and  C_15 
REMARK    2  A    between atoms: N_7  and  C_22 
REMARK       I    between atoms: N_7  and  C_24 
REMARK    3  A    between atoms: C_15  and  C_16 
REMARK    4  A    between atoms: C_18  and  C_23 
REMARK    5  A    between atoms: C_24  and  C_25 
REMARK    6  A    between atoms: C_28  and  C_32 
REMARK    7  A    between atoms: C_33  and  C_35 
ROOT
HETATM    1  O   UNL     1      40.815  16.987  39.063  1.00  0.00    -0.267 OA
HETATM    2  N   UNL     1      41.248  14.749  39.637  1.00  0.00    -0.323 N 
HETATM    3  C   UNL     1      40.459  15.823  39.203  1.00  0.00     0.256 C 
HETATM    4  H   UNL     1      40.825  13.826  39.666  1.00  0.00     0.169 HD
ENDROOT
BRANCH   2   5
HETATM    5  C   UNL     1      42.595  14.765  39.999  1.00  0.00     0.035 A 
HETATM    6  C   UNL     1      42.978  15.277  41.238  1.00  0.00     0.046 A 
HETATM    7  C   UNL     1      44.326  15.293  41.601  1.00  0.00     0.058 A 
HETATM    8  C   UNL     1      45.289  14.796  40.724  1.00  0.00    -0.015 A 
HETATM    9  C   UNL     1      44.906  14.283  39.484  1.00  0.00     0.012 A 
HETATM   10  C   UNL     1      43.559  14.268  39.122  1.00  0.00     0.030 A 
BRANCH   7  11
HETATM   11  C   UNL     1      44.713  15.845  42.933  1.00  0.00     0.418 C 
HETATM   12  F   UNL     1      43.654  16.031  43.775  1.00  0.00    -0.166 F 
HETATM   13  F   UNL     1      45.581  15.048  43.621  1.00  0.00    -0.166 F 
HETATM   14  F   UNL     1      45.325  17.060  42.839  1.00  0.00    -0.166 F 
ENDBRANCH   7  11
BRANCH   8  15
HETATM   15  C   UNL     1      46.750  14.801  41.092  1.00  0.00     0.311 C 
BRANCH  15  16
HETATM   16  N   UNL     1      47.500  13.786  40.355  1.00  0.00     0.096 N 
HETATM   17  C   UNL     1      47.907  12.691  41.244  1.00  0.00     0.303 C 
HETATM   18  C   UNL     1      48.696  11.627  40.472  1.00  0.00     0.302 C 
HETATM   19  N   UNL     1      49.869  12.219  39.817  1.00  0.00     0.087 N 
HETATM   20  C   UNL     1      49.463  13.315  38.931  1.00  0.00     0.302 C 
HETATM   21  C   UNL     1      50.619  11.205  39.080  1.00  0.00     0.310 C 
HETATM   22  C   UNL     1      48.673  14.379  39.702  1.00  0.00     0.303 C 
ENDBRANCH  15  16
ENDBRANCH   8  15
ENDBRANCH   2   5
BRANCH   3  23
HETATM   23  C   UNL     1      39.039  15.494  38.915  1.00  0.00     0.033 A 
HETATM   24  C   UNL     1      38.488  14.302  39.388  1.00  0.00     0.038 A 
HETATM   25  C   UNL     1      37.155  13.994  39.118  1.00  0.00     0.025 A 
HETATM   26  C   UNL     1      36.371  14.877  38.375  1.00  0.00    -0.043 A 
HETATM   27  C   UNL     1      36.922  16.069  37.903  1.00  0.00     0.009 A 
HETATM   28  C   UNL     1      34.939  14.581  38.066  1.00  0.00     0.049 C 
HETATM   29  C   UNL     1      38.255  16.377  38.173  1.00  0.00     0.017 A 
BRANCH  25  30
HETATM   30  C   UNL     1      36.613  12.765  39.612  1.00  0.00    -0.059 C 
HETATM   31  C   UNL     1      36.159  11.732  40.027  1.00  0.00    -0.040 C 
BRANCH  31  32
HETATM   32  C   UNL     1      35.618  10.504  40.520  1.00  0.00     0.131 A 
HETATM   33  N   UNL     1      35.529  10.125  41.834  1.00  0.00    -0.206 N 
HETATM   34  N   UNL     1      35.945  10.859  42.905  1.00  0.00    -0.177 NA
HETATM   35  C   UNL     1      34.944   8.872  41.858  1.00  0.00     0.151 A 
HETATM   36  C   UNL     1      35.741  10.262  44.037  1.00  0.00     0.139 A 
HETATM   37  C   UNL     1      35.128   8.927  44.228  1.00  0.00     0.025 A 
HETATM   38  C   UNL     1      34.749   8.273  43.125  1.00  0.00     0.054 A 
HETATM   39  N   UNL     1      34.665   8.452  40.640  1.00  0.00    -0.238 NA
HETATM   40  C   UNL     1      35.080   9.459  39.807  1.00  0.00     0.160 A 
ENDBRANCH  31  32
ENDBRANCH  25  30
ENDBRANCH   3  23
TORSDOF 7
