REMARK VINA RESULT:      -9.4      7.015      8.960
REMARK  7 active torsions:
REMARK  status: ('A' for Active; 'I' for Inactive)
REMARK    1  A    between atoms: N_5  and  C_15 
REMARK    2  A    between atoms: N_7  and  C_22 
REMARK       I    between atoms: N_7  and  C_24 
REMARK    3  A    between atoms: C_15  and  C_16 
REMARK    4  A    between atoms: C_18  and  C_23 
REMARK    5  A    between atoms: C_24  and  C_25 
REMARK    6  A    between atoms: C_28  and  C_32 
REMARK    7  A    between atoms: C_33  and  C_35 
ROOT
HETATM    1  O   UNL     1      35.433   4.415  49.473  1.00  0.00    -0.267 OA
HETATM    2  N   UNL     1      35.571   5.207  51.682  1.00  0.00    -0.323 N 
HETATM    3  C   UNL     1      35.254   5.284  50.319  1.00  0.00     0.256 C 
HETATM    4  H   UNL     1      35.328   5.995  52.275  1.00  0.00     0.169 HD
ENDROOT
BRANCH   2   5
HETATM    5  C   UNL     1      36.150   4.140  52.370  1.00  0.00     0.035 A 
HETATM    6  C   UNL     1      37.340   4.328  53.073  1.00  0.00     0.046 A 
HETATM    7  C   UNL     1      37.920   3.261  53.761  1.00  0.00     0.058 A 
HETATM    8  C   UNL     1      37.308   2.008  53.746  1.00  0.00    -0.015 A 
HETATM    9  C   UNL     1      36.117   1.821  53.044  1.00  0.00     0.012 A 
HETATM   10  C   UNL     1      35.539   2.887  52.355  1.00  0.00     0.030 A 
BRANCH   7  11
HETATM   11  C   UNL     1      39.193   3.485  54.508  1.00  0.00     0.418 C 
HETATM   12  F   UNL     1      39.102   3.201  55.841  1.00  0.00    -0.166 F 
HETATM   13  F   UNL     1      40.233   2.729  54.051  1.00  0.00    -0.166 F 
HETATM   14  F   UNL     1      39.620   4.779  54.437  1.00  0.00    -0.166 F 
ENDBRANCH   7  11
BRANCH   8  15
HETATM   15  C   UNL     1      37.913   0.841  54.483  1.00  0.00     0.311 C 
BRANCH  15  16
HETATM   16  N   UNL     1      37.737  -0.412  53.753  1.00  0.00     0.096 N 
HETATM   17  C   UNL     1      37.467  -1.520  54.677  1.00  0.00     0.303 C 
HETATM   18  C   UNL     1      37.284  -2.837  53.912  1.00  0.00     0.302 C 
HETATM   19  N   UNL     1      38.464  -3.131  53.090  1.00  0.00     0.087 N 
HETATM   20  C   UNL     1      38.736  -2.023  52.167  1.00  0.00     0.302 C 
HETATM   21  C   UNL     1      38.287  -4.384  52.359  1.00  0.00     0.310 C 
HETATM   22  C   UNL     1      38.918  -0.707  52.932  1.00  0.00     0.303 C 
ENDBRANCH  15  16
ENDBRANCH   8  15
ENDBRANCH   2   5
BRANCH   3  23
HETATM   23  C   UNL     1      34.666   6.574  49.874  1.00  0.00     0.033 A 
HETATM   24  C   UNL     1      34.823   6.995  48.553  1.00  0.00     0.038 A 
HETATM   25  C   UNL     1      34.270   8.206  48.137  1.00  0.00     0.025 A 
HETATM   26  C   UNL     1      33.558   8.996  49.040  1.00  0.00    -0.043 A 
HETATM   27  C   UNL     1      33.401   8.574  50.360  1.00  0.00     0.009 A 
HETATM   28  C   UNL     1      32.951  10.299  48.629  1.00  0.00     0.049 C 
HETATM   29  C   UNL     1      33.954   7.364  50.777  1.00  0.00     0.017 A 
BRANCH  25  30
HETATM   30  C   UNL     1      34.446   8.617  46.777  1.00  0.00    -0.059 C 
HETATM   31  C   UNL     1      34.595   8.962  45.635  1.00  0.00    -0.040 C 
BRANCH  31  32
HETATM   32  C   UNL     1      34.772   9.372  44.277  1.00  0.00     0.131 A 
HETATM   33  N   UNL     1      34.575   8.599  43.163  1.00  0.00    -0.206 N 
HETATM   34  N   UNL     1      34.178   7.295  43.158  1.00  0.00    -0.177 NA
HETATM   35  C   UNL     1      34.858   9.389  42.063  1.00  0.00     0.151 A 
HETATM   36  C   UNL     1      34.071   6.803  41.964  1.00  0.00     0.139 A 
HETATM   37  C   UNL     1      34.335   7.517  40.692  1.00  0.00     0.025 A 
HETATM   38  C   UNL     1      34.723   8.794  40.787  1.00  0.00     0.054 A 
HETATM   39  N   UNL     1      35.216  10.604  42.428  1.00  0.00    -0.238 NA
HETATM   40  C   UNL     1      35.163  10.599  43.799  1.00  0.00     0.160 A 
ENDBRANCH  31  32
ENDBRANCH  25  30
ENDBRANCH   3  23
TORSDOF 7
