REMARK VINA RESULT:     -11.4      1.855      2.856
REMARK  7 active torsions:
REMARK  status: ('A' for Active; 'I' for Inactive)
REMARK    1  A    between atoms: N_5  and  C_15 
REMARK    2  A    between atoms: N_7  and  C_22 
REMARK       I    between atoms: N_7  and  C_24 
REMARK    3  A    between atoms: C_15  and  C_16 
REMARK    4  A    between atoms: C_18  and  C_23 
REMARK    5  A    between atoms: C_24  and  C_25 
REMARK    6  A    between atoms: C_28  and  C_32 
REMARK    7  A    between atoms: C_33  and  C_35 
ROOT
HETATM    1  O   UNL     1      40.725  17.283  38.612  1.00  0.00    -0.267 OA
HETATM    2  N   UNL     1      41.395  15.177  39.412  1.00  0.00    -0.323 N 
HETATM    3  C   UNL     1      40.488  16.116  38.904  1.00  0.00     0.256 C 
HETATM    4  H   UNL     1      41.063  14.229  39.571  1.00  0.00     0.169 HD
ENDROOT
BRANCH   2   5
HETATM    5  C   UNL     1      42.749  15.356  39.694  1.00  0.00     0.035 A 
HETATM    6  C   UNL     1      43.176  15.469  41.017  1.00  0.00     0.046 A 
HETATM    7  C   UNL     1      44.531  15.648  41.300  1.00  0.00     0.058 A 
HETATM    8  C   UNL     1      45.457  15.712  40.260  1.00  0.00    -0.015 A 
HETATM    9  C   UNL     1      45.030  15.598  38.937  1.00  0.00     0.012 A 
HETATM   10  C   UNL     1      43.675  15.420  38.655  1.00  0.00     0.030 A 
BRANCH   7  11
HETATM   11  C   UNL     1      44.966  15.765  42.724  1.00  0.00     0.418 C 
HETATM   12  F   UNL     1      43.928  15.849  43.607  1.00  0.00    -0.166 F 
HETATM   13  F   UNL     1      45.717  14.708  43.153  1.00  0.00    -0.166 F 
HETATM   14  F   UNL     1      45.730  16.873  42.948  1.00  0.00    -0.166 F 
ENDBRANCH   7  11
BRANCH   8  15
HETATM   15  C   UNL     1      46.925  15.904  40.539  1.00  0.00     0.311 C 
BRANCH  15  16
HETATM   16  N   UNL     1      47.665  14.647  40.447  1.00  0.00     0.096 N 
HETATM   17  C   UNL     1      48.517  14.455  41.626  1.00  0.00     0.303 C 
HETATM   18  C   UNL     1      49.295  13.137  41.529  1.00  0.00     0.302 C 
HETATM   19  N   UNL     1      50.100  13.096  40.303  1.00  0.00     0.087 N 
HETATM   20  C   UNL     1      49.249  13.289  39.123  1.00  0.00     0.302 C 
HETATM   21  C   UNL     1      50.839  11.838  40.210  1.00  0.00     0.310 C 
HETATM   22  C   UNL     1      48.471  14.606  39.221  1.00  0.00     0.303 C 
ENDBRANCH  15  16
ENDBRANCH   8  15
ENDBRANCH   2   5
BRANCH   3  23
HETATM   23  C   UNL     1      39.094  15.629  38.734  1.00  0.00     0.033 A 
HETATM   24  C   UNL     1      38.639  14.541  39.479  1.00  0.00     0.038 A 
HETATM   25  C   UNL     1      37.330  14.085  39.321  1.00  0.00     0.025 A 
HETATM   26  C   UNL     1      36.476  14.717  38.417  1.00  0.00    -0.043 A 
HETATM   27  C   UNL     1      36.931  15.805  37.672  1.00  0.00     0.009 A 
HETATM   28  C   UNL     1      35.067  14.256  38.221  1.00  0.00     0.049 C 
HETATM   29  C   UNL     1      38.240  16.261  37.831  1.00  0.00     0.017 A 
BRANCH  25  30
HETATM   30  C   UNL     1      36.887  12.966  40.095  1.00  0.00    -0.059 C 
HETATM   31  C   UNL     1      36.515  12.026  40.745  1.00  0.00    -0.040 C 
BRANCH  31  32
HETATM   32  C   UNL     1      36.073  10.908  41.518  1.00  0.00     0.131 A 
HETATM   33  N   UNL     1      35.412   9.804  41.047  1.00  0.00    -0.206 N 
HETATM   34  N   UNL     1      35.057   9.582  39.749  1.00  0.00    -0.177 NA
HETATM   35  C   UNL     1      35.178   8.975  42.129  1.00  0.00     0.151 A 
HETATM   36  C   UNL     1      34.439   8.456  39.579  1.00  0.00     0.139 A 
HETATM   37  C   UNL     1      34.116   7.463  40.631  1.00  0.00     0.025 A 
HETATM   38  C   UNL     1      34.498   7.760  41.878  1.00  0.00     0.054 A 
HETATM   39  N   UNL     1      35.655   9.497  43.242  1.00  0.00    -0.238 NA
HETATM   40  C   UNL     1      36.211  10.694  42.869  1.00  0.00     0.160 A 
ENDBRANCH  31  32
ENDBRANCH  25  30
ENDBRANCH   3  23
TORSDOF 7
