REMARK VINA RESULT:      -9.7      0.000      0.000
REMARK  7 active torsions:
REMARK  status: ('A' for Active; 'I' for Inactive)
REMARK    1  A    between atoms: N_5  and  C_15 
REMARK    2  A    between atoms: N_7  and  C_22 
REMARK       I    between atoms: N_7  and  C_24 
REMARK    3  A    between atoms: C_15  and  C_16 
REMARK    4  A    between atoms: C_18  and  C_23 
REMARK    5  A    between atoms: C_24  and  C_25 
REMARK    6  A    between atoms: C_28  and  C_32 
REMARK    7  A    between atoms: C_33  and  C_35 
ROOT
HETATM    1  O   UNL     1      39.992   2.676  47.130  1.00  0.00    -0.267 OA
HETATM    2  N   UNL     1      40.795   1.768  49.144  1.00  0.00    -0.323 N 
HETATM    3  C   UNL     1      39.841   2.358  48.304  1.00  0.00     0.256 C 
HETATM    4  H   UNL     1      40.513   1.521  50.089  1.00  0.00     0.169 HD
ENDROOT
BRANCH   2   5
HETATM    5  C   UNL     1      42.109   1.414  48.836  1.00  0.00     0.035 A 
HETATM    6  C   UNL     1      42.407   0.106  48.454  1.00  0.00     0.046 A 
HETATM    7  C   UNL     1      43.721  -0.249  48.146  1.00  0.00     0.058 A 
HETATM    8  C   UNL     1      44.735   0.706  48.219  1.00  0.00    -0.015 A 
HETATM    9  C   UNL     1      44.437   2.014  48.599  1.00  0.00     0.012 A 
HETATM   10  C   UNL     1      43.123   2.367  48.908  1.00  0.00     0.030 A 
BRANCH   7  11
HETATM   11  C   UNL     1      44.017  -1.654  47.738  1.00  0.00     0.418 C 
HETATM   12  F   UNL     1      42.899  -2.398  47.490  1.00  0.00    -0.166 F 
HETATM   13  F   UNL     1      44.767  -1.745  46.601  1.00  0.00    -0.166 F 
HETATM   14  F   UNL     1      44.711  -2.341  48.692  1.00  0.00    -0.166 F 
ENDBRANCH   7  11
BRANCH   8  15
HETATM   15  C   UNL     1      46.161   0.348  47.890  1.00  0.00     0.311 C 
BRANCH  15  16
HETATM   16  N   UNL     1      46.712   1.212  46.848  1.00  0.00     0.096 N 
HETATM   17  C   UNL     1      46.926   0.460  45.606  1.00  0.00     0.303 C 
HETATM   18  C   UNL     1      47.506   1.365  44.512  1.00  0.00     0.302 C 
HETATM   19  N   UNL     1      48.760   1.985  44.959  1.00  0.00     0.087 N 
HETATM   20  C   UNL     1      48.547   2.736  46.202  1.00  0.00     0.302 C 
HETATM   21  C   UNL     1      49.310   2.850  43.917  1.00  0.00     0.310 C 
HETATM   22  C   UNL     1      47.966   1.831  47.294  1.00  0.00     0.303 C 
ENDBRANCH  15  16
ENDBRANCH   8  15
ENDBRANCH   2   5
BRANCH   3  23
HETATM   23  C   UNL     1      38.526   2.642  48.935  1.00  0.00     0.033 A 
HETATM   24  C   UNL     1      37.885   3.859  48.697  1.00  0.00     0.038 A 
HETATM   25  C   UNL     1      36.650   4.124  49.289  1.00  0.00     0.025 A 
HETATM   26  C   UNL     1      36.055   3.173  50.118  1.00  0.00    -0.043 A 
HETATM   27  C   UNL     1      36.696   1.957  50.356  1.00  0.00     0.009 A 
HETATM   28  C   UNL     1      34.732   3.423  50.769  1.00  0.00     0.049 C 
HETATM   29  C   UNL     1      37.931   1.692  49.764  1.00  0.00     0.017 A 
BRANCH  25  30
HETATM   30  C   UNL     1      36.013   5.380  49.031  1.00  0.00    -0.059 C 
HETATM   31  C   UNL     1      35.479   6.434  48.815  1.00  0.00    -0.040 C 
BRANCH  31  32
HETATM   32  C   UNL     1      34.844   7.689  48.557  1.00  0.00     0.131 A 
HETATM   33  N   UNL     1      34.197   8.475  49.474  1.00  0.00    -0.206 N 
HETATM   34  N   UNL     1      34.044   8.194  50.799  1.00  0.00    -0.177 NA
HETATM   35  C   UNL     1      33.736   9.592  48.799  1.00  0.00     0.151 A 
HETATM   36  C   UNL     1      33.389   9.111  51.439  1.00  0.00     0.139 A 
HETATM   37  C   UNL     1      32.834  10.358  50.862  1.00  0.00     0.025 A 
HETATM   38  C   UNL     1      33.027  10.557  49.554  1.00  0.00     0.054 A 
HETATM   39  N   UNL     1      34.058   9.545  47.522  1.00  0.00    -0.238 NA
HETATM   40  C   UNL     1      34.746   8.368  47.367  1.00  0.00     0.160 A 
ENDBRANCH  31  32
ENDBRANCH  25  30
ENDBRANCH   3  23
TORSDOF 7
