REMARK VINA RESULT:      -9.3     11.219     13.883
REMARK  7 active torsions:
REMARK  status: ('A' for Active; 'I' for Inactive)
REMARK    1  A    between atoms: N_5  and  C_15 
REMARK    2  A    between atoms: N_7  and  C_22 
REMARK       I    between atoms: N_7  and  C_24 
REMARK    3  A    between atoms: C_15  and  C_16 
REMARK    4  A    between atoms: C_18  and  C_23 
REMARK    5  A    between atoms: C_24  and  C_25 
REMARK    6  A    between atoms: C_28  and  C_32 
REMARK    7  A    between atoms: C_33  and  C_35 
ROOT
HETATM    1  O   UNL     1      40.182   2.876  46.966  1.00  0.00    -0.267 OA
HETATM    2  N   UNL     1      41.149   2.698  49.102  1.00  0.00    -0.323 N 
HETATM    3  C   UNL     1      40.095   2.840  48.188  1.00  0.00     0.256 C 
HETATM    4  H   UNL     1      40.920   2.644  50.090  1.00  0.00     0.169 HD
ENDROOT
BRANCH   2   5
HETATM    5  C   UNL     1      42.510   2.565  48.828  1.00  0.00     0.035 A 
HETATM    6  C   UNL     1      43.318   3.698  48.740  1.00  0.00     0.046 A 
HETATM    7  C   UNL     1      44.680   3.566  48.466  1.00  0.00     0.058 A 
HETATM    8  C   UNL     1      45.233   2.299  48.283  1.00  0.00    -0.015 A 
HETATM    9  C   UNL     1      44.426   1.165  48.372  1.00  0.00     0.012 A 
HETATM   10  C   UNL     1      43.064   1.298  48.644  1.00  0.00     0.030 A 
BRANCH   7  11
HETATM   11  C   UNL     1      45.525   4.793  48.378  1.00  0.00     0.418 C 
HETATM   12  F   UNL     1      44.805   5.953  48.366  1.00  0.00    -0.166 F 
HETATM   13  F   UNL     1      46.401   4.927  49.417  1.00  0.00    -0.166 F 
HETATM   14  F   UNL     1      46.288   4.823  47.248  1.00  0.00    -0.166 F 
ENDBRANCH   7  11
BRANCH   8  15
HETATM   15  C   UNL     1      46.701   2.129  47.987  1.00  0.00     0.311 C 
BRANCH  15  16
HETATM   16  N   UNL     1      47.354   1.257  48.961  1.00  0.00     0.096 N 
HETATM   17  C   UNL     1      47.734   2.009  50.163  1.00  0.00     0.303 C 
HETATM   18  C   UNL     1      48.422   1.094  51.184  1.00  0.00     0.302 C 
HETATM   19  N   UNL     1      49.597   0.442  50.593  1.00  0.00     0.087 N 
HETATM   20  C   UNL     1      49.217  -0.308  49.391  1.00  0.00     0.302 C 
HETATM   21  C   UNL     1      50.249  -0.431  51.566  1.00  0.00     0.310 C 
HETATM   22  C   UNL     1      48.530   0.606  48.370  1.00  0.00     0.303 C 
ENDBRANCH  15  16
ENDBRANCH   8  15
ENDBRANCH   2   5
BRANCH   3  23
HETATM   23  C   UNL     1      38.745   2.989  48.792  1.00  0.00     0.033 A 
HETATM   24  C   UNL     1      38.030   4.174  48.619  1.00  0.00     0.038 A 
HETATM   25  C   UNL     1      36.762   4.312  49.185  1.00  0.00     0.025 A 
HETATM   26  C   UNL     1      36.210   3.265  49.923  1.00  0.00    -0.043 A 
HETATM   27  C   UNL     1      36.925   2.080  50.095  1.00  0.00     0.009 A 
HETATM   28  C   UNL     1      34.854   3.377  50.544  1.00  0.00     0.049 C 
HETATM   29  C   UNL     1      38.193   1.942  49.530  1.00  0.00     0.017 A 
BRANCH  25  30
HETATM   30  C   UNL     1      36.048   5.538  48.996  1.00  0.00    -0.059 C 
HETATM   31  C   UNL     1      35.449   6.567  48.837  1.00  0.00    -0.040 C 
BRANCH  31  32
HETATM   32  C   UNL     1      34.736   7.792  48.648  1.00  0.00     0.131 A 
HETATM   33  N   UNL     1      34.170   8.562  49.630  1.00  0.00    -0.206 N 
HETATM   34  N   UNL     1      34.186   8.289  50.966  1.00  0.00    -0.177 NA
HETATM   35  C   UNL     1      33.586   9.651  49.008  1.00  0.00     0.151 A 
HETATM   36  C   UNL     1      33.573   9.186  51.673  1.00  0.00     0.139 A 
HETATM   37  C   UNL     1      32.903  10.403  51.159  1.00  0.00     0.025 A 
HETATM   38  C   UNL     1      32.932  10.595  49.836  1.00  0.00     0.054 A 
HETATM   39  N   UNL     1      33.757   9.604  47.702  1.00  0.00    -0.238 NA
HETATM   40  C   UNL     1      34.470   8.454  47.474  1.00  0.00     0.160 A 
ENDBRANCH  31  32
ENDBRANCH  25  30
ENDBRANCH   3  23
TORSDOF 7
