REMARK VINA RESULT:      -9.5      5.989      8.585
REMARK  7 active torsions:
REMARK  status: ('A' for Active; 'I' for Inactive)
REMARK    1  A    between atoms: N_5  and  C_15 
REMARK    2  A    between atoms: N_7  and  C_22 
REMARK       I    between atoms: N_7  and  C_24 
REMARK    3  A    between atoms: C_15  and  C_16 
REMARK    4  A    between atoms: C_18  and  C_23 
REMARK    5  A    between atoms: C_24  and  C_25 
REMARK    6  A    between atoms: C_28  and  C_32 
REMARK    7  A    between atoms: C_33  and  C_35 
ROOT
HETATM    1  O   UNL     1      34.368   4.154  49.891  1.00  0.00    -0.267 OA
HETATM    2  N   UNL     1      36.290   5.148  50.812  1.00  0.00    -0.323 N 
HETATM    3  C   UNL     1      35.048   5.138  50.163  1.00  0.00     0.256 C 
HETATM    4  H   UNL     1      36.720   6.047  51.007  1.00  0.00     0.169 HD
ENDROOT
BRANCH   2   5
HETATM    5  C   UNL     1      37.020   4.057  51.286  1.00  0.00     0.035 A 
HETATM    6  C   UNL     1      37.405   3.042  50.410  1.00  0.00     0.046 A 
HETATM    7  C   UNL     1      38.135   1.951  50.884  1.00  0.00     0.058 A 
HETATM    8  C   UNL     1      38.480   1.877  52.233  1.00  0.00    -0.015 A 
HETATM    9  C   UNL     1      38.095   2.893  53.109  1.00  0.00     0.012 A 
HETATM   10  C   UNL     1      37.364   3.982  52.635  1.00  0.00     0.030 A 
BRANCH   7  11
HETATM   11  C   UNL     1      38.539   0.878  49.928  1.00  0.00     0.418 C 
HETATM   12  F   UNL     1      39.843   0.496  50.055  1.00  0.00    -0.166 F 
HETATM   13  F   UNL     1      37.815  -0.272  50.063  1.00  0.00    -0.166 F 
HETATM   14  F   UNL     1      38.391   1.255  48.626  1.00  0.00    -0.166 F 
ENDBRANCH   7  11
BRANCH   8  15
HETATM   15  C   UNL     1      39.268   0.711  52.769  1.00  0.00     0.311 C 
BRANCH  15  16
HETATM   16  N   UNL     1      38.427  -0.208  53.534  1.00  0.00     0.096 N 
HETATM   17  C   UNL     1      38.905  -0.323  54.917  1.00  0.00     0.303 C 
HETATM   18  C   UNL     1      38.025  -1.289  55.720  1.00  0.00     0.302 C 
HETATM   19  N   UNL     1      37.982  -2.609  55.081  1.00  0.00     0.087 N 
HETATM   20  C   UNL     1      37.506  -2.495  53.698  1.00  0.00     0.302 C 
HETATM   21  C   UNL     1      37.141  -3.528  55.846  1.00  0.00     0.310 C 
HETATM   22  C   UNL     1      38.385  -1.529  52.895  1.00  0.00     0.303 C 
ENDBRANCH  15  16
ENDBRANCH   8  15
ENDBRANCH   2   5
BRANCH   3  23
HETATM   23  C   UNL     1      34.535   6.470  49.750  1.00  0.00     0.033 A 
HETATM   24  C   UNL     1      34.708   6.909  48.437  1.00  0.00     0.038 A 
HETATM   25  C   UNL     1      34.225   8.159  48.050  1.00  0.00     0.025 A 
HETATM   26  C   UNL     1      33.569   8.971  48.975  1.00  0.00    -0.043 A 
HETATM   27  C   UNL     1      33.396   8.532  50.288  1.00  0.00     0.009 A 
HETATM   28  C   UNL     1      33.038  10.316  48.596  1.00  0.00     0.049 C 
HETATM   29  C   UNL     1      33.878   7.282  50.675  1.00  0.00     0.017 A 
BRANCH  25  30
HETATM   30  C   UNL     1      34.417   8.587  46.697  1.00  0.00    -0.059 C 
HETATM   31  C   UNL     1      34.578   8.948  45.562  1.00  0.00    -0.040 C 
BRANCH  31  32
HETATM   32  C   UNL     1      34.770   9.376  44.212  1.00  0.00     0.131 A 
HETATM   33  N   UNL     1      34.583   8.619  43.085  1.00  0.00    -0.206 N 
HETATM   34  N   UNL     1      34.181   7.316  43.058  1.00  0.00    -0.177 NA
HETATM   35  C   UNL     1      34.879   9.424  42.000  1.00  0.00     0.151 A 
HETATM   36  C   UNL     1      34.085   6.842  41.856  1.00  0.00     0.139 A 
HETATM   37  C   UNL     1      34.365   7.573  40.597  1.00  0.00     0.025 A 
HETATM   38  C   UNL     1      34.756   8.847  40.714  1.00  0.00     0.054 A 
HETATM   39  N   UNL     1      35.237  10.633  42.385  1.00  0.00    -0.238 NA
HETATM   40  C   UNL     1      35.170  10.609  43.755  1.00  0.00     0.160 A 
ENDBRANCH  31  32
ENDBRANCH  25  30
ENDBRANCH   3  23
TORSDOF 7
