REMARK VINA RESULT:      -9.3     20.304     26.958
REMARK  7 active torsions:
REMARK  status: ('A' for Active; 'I' for Inactive)
REMARK    1  A    between atoms: N_5  and  C_15 
REMARK    2  A    between atoms: N_7  and  C_22 
REMARK       I    between atoms: N_7  and  C_24 
REMARK    3  A    between atoms: C_15  and  C_16 
REMARK    4  A    between atoms: C_18  and  C_23 
REMARK    5  A    between atoms: C_24  and  C_25 
REMARK    6  A    between atoms: C_28  and  C_32 
REMARK    7  A    between atoms: C_33  and  C_35 
ROOT
HETATM    1  O   UNL     1      37.076   4.360  59.556  1.00  0.00    -0.267 OA
HETATM    2  N   UNL     1      35.594   3.239  60.995  1.00  0.00    -0.323 N 
HETATM    3  C   UNL     1      35.993   3.837  59.792  1.00  0.00     0.256 C 
HETATM    4  H   UNL     1      34.674   2.808  61.033  1.00  0.00     0.169 HD
ENDROOT
BRANCH   2   5
HETATM    5  C   UNL     1      36.328   3.108  62.174  1.00  0.00     0.035 A 
HETATM    6  C   UNL     1      36.026   3.907  63.277  1.00  0.00     0.046 A 
HETATM    7  C   UNL     1      36.760   3.775  64.456  1.00  0.00     0.058 A 
HETATM    8  C   UNL     1      37.795   2.844  64.532  1.00  0.00    -0.015 A 
HETATM    9  C   UNL     1      38.098   2.045  63.429  1.00  0.00     0.012 A 
HETATM   10  C   UNL     1      37.364   2.177  62.250  1.00  0.00     0.030 A 
BRANCH   7  11
HETATM   11  C   UNL     1      36.418   4.640  65.625  1.00  0.00     0.418 C 
HETATM   12  F   UNL     1      35.376   5.490  65.388  1.00  0.00    -0.166 F 
HETATM   13  F   UNL     1      36.059   3.935  66.737  1.00  0.00    -0.166 F 
HETATM   14  F   UNL     1      37.458   5.433  66.012  1.00  0.00    -0.166 F 
ENDBRANCH   7  11
BRANCH   8  15
HETATM   15  C   UNL     1      38.602   2.683  65.794  1.00  0.00     0.311 C 
BRANCH  15  16
HETATM   16  N   UNL     1      39.783   1.849  65.582  1.00  0.00     0.096 N 
HETATM   17  C   UNL     1      39.756   0.673  66.460  1.00  0.00     0.303 C 
HETATM   18  C   UNL     1      40.996  -0.202  66.239  1.00  0.00     0.302 C 
HETATM   19  N   UNL     1      42.225   0.571  66.455  1.00  0.00     0.087 N 
HETATM   20  C   UNL     1      42.252   1.748  65.578  1.00  0.00     0.302 C 
HETATM   21  C   UNL     1      43.406  -0.263  66.241  1.00  0.00     0.310 C 
HETATM   22  C   UNL     1      41.012   2.622  65.798  1.00  0.00     0.303 C 
ENDBRANCH  15  16
ENDBRANCH   8  15
ENDBRANCH   2   5
BRANCH   3  23
HETATM   23  C   UNL     1      34.969   3.846  58.715  1.00  0.00     0.033 A 
HETATM   24  C   UNL     1      35.331   4.182  57.411  1.00  0.00     0.038 A 
HETATM   25  C   UNL     1      34.369   4.190  56.400  1.00  0.00     0.025 A 
HETATM   26  C   UNL     1      33.045   3.862  56.694  1.00  0.00    -0.043 A 
HETATM   27  C   UNL     1      32.684   3.526  57.999  1.00  0.00     0.009 A 
HETATM   28  C   UNL     1      31.988   3.860  55.637  1.00  0.00     0.049 C 
HETATM   29  C   UNL     1      33.645   3.518  59.009  1.00  0.00     0.017 A 
BRANCH  25  30
HETATM   30  C   UNL     1      34.764   4.540  55.069  1.00  0.00    -0.059 C 
HETATM   31  C   UNL     1      35.096   4.832  53.952  1.00  0.00    -0.040 C 
BRANCH  31  32
HETATM   32  C   UNL     1      35.490   5.182  52.623  1.00  0.00     0.131 A 
HETATM   33  N   UNL     1      34.919   6.144  51.833  1.00  0.00    -0.206 N 
HETATM   34  N   UNL     1      33.866   6.938  52.179  1.00  0.00    -0.177 NA
HETATM   35  C   UNL     1      35.608   6.149  50.633  1.00  0.00     0.151 A 
HETATM   36  C   UNL     1      33.525   7.765  51.241  1.00  0.00     0.139 A 
HETATM   37  C   UNL     1      34.162   7.892  49.908  1.00  0.00     0.025 A 
HETATM   38  C   UNL     1      35.188   7.074  49.649  1.00  0.00     0.054 A 
HETATM   39  N   UNL     1      36.572   5.250  50.633  1.00  0.00    -0.238 NA
HETATM   40  C   UNL     1      36.504   4.648  51.864  1.00  0.00     0.160 A 
ENDBRANCH  31  32
ENDBRANCH  25  30
ENDBRANCH   3  23
TORSDOF 7
