REMARK VINA RESULT:      -9.0     20.377     26.678
REMARK  7 active torsions:
REMARK  status: ('A' for Active; 'I' for Inactive)
REMARK    1  A    between atoms: N_5  and  C_15 
REMARK    2  A    between atoms: N_7  and  C_22 
REMARK       I    between atoms: N_7  and  C_24 
REMARK    3  A    between atoms: C_15  and  C_16 
REMARK    4  A    between atoms: C_18  and  C_23 
REMARK    5  A    between atoms: C_24  and  C_25 
REMARK    6  A    between atoms: C_28  and  C_32 
REMARK    7  A    between atoms: C_33  and  C_35 
ROOT
HETATM    1  O   UNL     1      35.177   4.015  60.499  1.00  0.00    -0.267 OA
HETATM    2  N   UNL     1      36.385   2.615  59.047  1.00  0.00    -0.323 N 
HETATM    3  C   UNL     1      36.004   3.134  60.292  1.00  0.00     0.256 C 
HETATM    4  H   UNL     1      37.057   1.853  59.033  1.00  0.00     0.169 HD
ENDROOT
BRANCH   2   5
HETATM    5  C   UNL     1      35.915   2.978  57.785  1.00  0.00     0.035 A 
HETATM    6  C   UNL     1      34.548   2.940  57.512  1.00  0.00     0.046 A 
HETATM    7  C   UNL     1      34.078   3.304  56.249  1.00  0.00     0.058 A 
HETATM    8  C   UNL     1      34.976   3.707  55.262  1.00  0.00    -0.015 A 
HETATM    9  C   UNL     1      36.343   3.745  55.534  1.00  0.00     0.012 A 
HETATM   10  C   UNL     1      36.813   3.381  56.797  1.00  0.00     0.030 A 
BRANCH   7  11
HETATM   11  C   UNL     1      32.610   3.258  55.981  1.00  0.00     0.418 C 
HETATM   12  F   UNL     1      32.178   2.049  55.513  1.00  0.00    -0.166 F 
HETATM   13  F   UNL     1      31.846   3.508  57.084  1.00  0.00    -0.166 F 
HETATM   14  F   UNL     1      32.220   4.173  55.047  1.00  0.00    -0.166 F 
ENDBRANCH   7  11
BRANCH   8  15
HETATM   15  C   UNL     1      34.493   4.105  53.891  1.00  0.00     0.311 C 
BRANCH  15  16
HETATM   16  N   UNL     1      35.489   3.821  52.860  1.00  0.00     0.096 N 
HETATM   17  C   UNL     1      35.520   4.892  51.857  1.00  0.00     0.303 C 
HETATM   18  C   UNL     1      36.564   4.593  50.773  1.00  0.00     0.302 C 
HETATM   19  N   UNL     1      36.297   3.299  50.134  1.00  0.00     0.087 N 
HETATM   20  C   UNL     1      36.263   2.229  51.137  1.00  0.00     0.302 C 
HETATM   21  C   UNL     1      37.293   3.014  49.103  1.00  0.00     0.310 C 
HETATM   22  C   UNL     1      35.220   2.527  52.220  1.00  0.00     0.303 C 
ENDBRANCH  15  16
ENDBRANCH   8  15
ENDBRANCH   2   5
BRANCH   3  23
HETATM   23  C   UNL     1      36.709   2.556  61.466  1.00  0.00     0.033 A 
HETATM   24  C   UNL     1      36.709   3.236  62.684  1.00  0.00     0.038 A 
HETATM   25  C   UNL     1      37.371   2.692  63.786  1.00  0.00     0.025 A 
HETATM   26  C   UNL     1      38.032   1.470  63.670  1.00  0.00    -0.043 A 
HETATM   27  C   UNL     1      38.032   0.791  62.451  1.00  0.00     0.009 A 
HETATM   28  C   UNL     1      38.751   0.857  64.828  1.00  0.00     0.049 C 
HETATM   29  C   UNL     1      37.371   1.334  61.350  1.00  0.00     0.017 A 
BRANCH  25  30
HETATM   30  C   UNL     1      37.358   3.409  65.025  1.00  0.00    -0.059 C 
HETATM   31  C   UNL     1      37.346   4.011  66.065  1.00  0.00    -0.040 C 
BRANCH  31  32
HETATM   32  C   UNL     1      37.333   4.726  67.303  1.00  0.00     0.131 A 
HETATM   33  N   UNL     1      36.721   5.928  67.540  1.00  0.00    -0.206 N 
HETATM   34  N   UNL     1      36.016   6.657  66.629  1.00  0.00    -0.177 NA
HETATM   35  C   UNL     1      36.958   6.252  68.864  1.00  0.00     0.151 A 
HETATM   36  C   UNL     1      35.542   7.759  67.119  1.00  0.00     0.139 A 
HETATM   37  C   UNL     1      35.707   8.244  68.510  1.00  0.00     0.025 A 
HETATM   38  C   UNL     1      36.415   7.469  69.340  1.00  0.00     0.054 A 
HETATM   39  N   UNL     1      37.678   5.324  69.461  1.00  0.00    -0.238 NA
HETATM   40  C   UNL     1      37.913   4.375  68.499  1.00  0.00     0.160 A 
ENDBRANCH  31  32
ENDBRANCH  25  30
ENDBRANCH   3  23
TORSDOF 7
