REMARK VINA RESULT:      -9.1     14.626     17.956
REMARK  7 active torsions:
REMARK  status: ('A' for Active; 'I' for Inactive)
REMARK    1  A    between atoms: N_5  and  C_15 
REMARK    2  A    between atoms: N_7  and  C_22 
REMARK       I    between atoms: N_7  and  C_24 
REMARK    3  A    between atoms: C_15  and  C_16 
REMARK    4  A    between atoms: C_18  and  C_23 
REMARK    5  A    between atoms: C_24  and  C_25 
REMARK    6  A    between atoms: C_28  and  C_32 
REMARK    7  A    between atoms: C_33  and  C_35 
ROOT
HETATM    1  O   UNL     1      40.221   3.081  46.953  1.00  0.00    -0.267 OA
HETATM    2  N   UNL     1      41.152   2.602  49.058  1.00  0.00    -0.323 N 
HETATM    3  C   UNL     1      40.117   2.901  48.161  1.00  0.00     0.256 C 
HETATM    4  H   UNL     1      40.908   2.439  50.031  1.00  0.00     0.169 HD
ENDROOT
BRANCH   2   5
HETATM    5  C   UNL     1      42.509   2.442  48.781  1.00  0.00     0.035 A 
HETATM    6  C   UNL     1      43.336   3.561  48.678  1.00  0.00     0.046 A 
HETATM    7  C   UNL     1      44.695   3.402  48.401  1.00  0.00     0.058 A 
HETATM    8  C   UNL     1      45.225   2.124  48.228  1.00  0.00    -0.015 A 
HETATM    9  C   UNL     1      44.399   1.005  48.331  1.00  0.00     0.012 A 
HETATM   10  C   UNL     1      43.040   1.165  48.607  1.00  0.00     0.030 A 
BRANCH   7  11
HETATM   11  C   UNL     1      45.561   4.614  48.297  1.00  0.00     0.418 C 
HETATM   12  F   UNL     1      46.317   4.649  47.161  1.00  0.00    -0.166 F 
HETATM   13  F   UNL     1      44.861   5.785  48.298  1.00  0.00    -0.166 F 
HETATM   14  F   UNL     1      46.446   4.714  49.331  1.00  0.00    -0.166 F 
ENDBRANCH   7  11
BRANCH   8  15
HETATM   15  C   UNL     1      46.688   1.926  47.929  1.00  0.00     0.311 C 
BRANCH  15  16
HETATM   16  N   UNL     1      47.324   1.033  48.895  1.00  0.00     0.096 N 
HETATM   17  C   UNL     1      47.657   1.752  50.130  1.00  0.00     0.303 C 
HETATM   18  C   UNL     1      48.327   0.816  51.143  1.00  0.00     0.302 C 
HETATM   19  N   UNL     1      49.529   0.200  50.570  1.00  0.00     0.087 N 
HETATM   20  C   UNL     1      49.198  -0.518  49.333  1.00  0.00     0.302 C 
HETATM   21  C   UNL     1      50.165  -0.694  51.535  1.00  0.00     0.310 C 
HETATM   22  C   UNL     1      48.528   0.418  48.321  1.00  0.00     0.303 C 
ENDBRANCH  15  16
ENDBRANCH   8  15
ENDBRANCH   2   5
BRANCH   3  23
HETATM   23  C   UNL     1      38.767   3.035  48.767  1.00  0.00     0.033 A 
HETATM   24  C   UNL     1      38.039   4.213  48.598  1.00  0.00     0.038 A 
HETATM   25  C   UNL     1      36.772   4.337  49.167  1.00  0.00     0.025 A 
HETATM   26  C   UNL     1      36.231   3.284  49.905  1.00  0.00    -0.043 A 
HETATM   27  C   UNL     1      36.959   2.106  50.074  1.00  0.00     0.009 A 
HETATM   28  C   UNL     1      34.876   3.382  50.529  1.00  0.00     0.049 C 
HETATM   29  C   UNL     1      38.227   1.982  49.505  1.00  0.00     0.017 A 
BRANCH  25  30
HETATM   30  C   UNL     1      36.045   5.557  48.980  1.00  0.00    -0.059 C 
HETATM   31  C   UNL     1      35.434   6.580  48.824  1.00  0.00    -0.040 C 
BRANCH  31  32
HETATM   32  C   UNL     1      34.708   7.797  48.639  1.00  0.00     0.131 A 
HETATM   33  N   UNL     1      34.128   8.555  49.622  1.00  0.00    -0.206 N 
HETATM   34  N   UNL     1      34.140   8.275  50.956  1.00  0.00    -0.177 NA
HETATM   35  C   UNL     1      33.535   9.641  49.003  1.00  0.00     0.151 A 
HETATM   36  C   UNL     1      33.513   9.160  51.665  1.00  0.00     0.139 A 
HETATM   37  C   UNL     1      32.831  10.373  51.154  1.00  0.00     0.025 A 
HETATM   38  C   UNL     1      32.866  10.572  49.832  1.00  0.00     0.054 A 
HETATM   39  N   UNL     1      33.714   9.603  47.697  1.00  0.00    -0.238 NA
HETATM   40  C   UNL     1      34.441   8.463  47.466  1.00  0.00     0.160 A 
ENDBRANCH  31  32
ENDBRANCH  25  30
ENDBRANCH   3  23
TORSDOF 7
