REMARK VINA RESULT:      -9.0      2.574      3.080
REMARK  7 active torsions:
REMARK  status: ('A' for Active; 'I' for Inactive)
REMARK    1  A    between atoms: N_5  and  C_15 
REMARK    2  A    between atoms: N_7  and  C_22 
REMARK       I    between atoms: N_7  and  C_24 
REMARK    3  A    between atoms: C_15  and  C_16 
REMARK    4  A    between atoms: C_18  and  C_23 
REMARK    5  A    between atoms: C_24  and  C_25 
REMARK    6  A    between atoms: C_28  and  C_32 
REMARK    7  A    between atoms: C_33  and  C_35 
ROOT
HETATM    1  O   UNL     1      40.420   2.908  47.345  1.00  0.00    -0.267 OA
HETATM    2  N   UNL     1      41.187   3.114  49.558  1.00  0.00    -0.323 N 
HETATM    3  C   UNL     1      40.219   3.036  48.547  1.00  0.00     0.256 C 
HETATM    4  H   UNL     1      40.868   3.180  50.521  1.00  0.00     0.169 HD
ENDROOT
BRANCH   2   5
HETATM    5  C   UNL     1      42.574   3.063  49.424  1.00  0.00     0.035 A 
HETATM    6  C   UNL     1      43.314   4.245  49.382  1.00  0.00     0.046 A 
HETATM    7  C   UNL     1      44.703   4.194  49.247  1.00  0.00     0.058 A 
HETATM    8  C   UNL     1      45.349   2.962  49.157  1.00  0.00    -0.015 A 
HETATM    9  C   UNL     1      44.609   1.780  49.200  1.00  0.00     0.012 A 
HETATM   10  C   UNL     1      43.221   1.831  49.333  1.00  0.00     0.030 A 
BRANCH   7  11
HETATM   11  C   UNL     1      45.475   5.471  49.206  1.00  0.00     0.418 C 
HETATM   12  F   UNL     1      46.106   5.690  48.015  1.00  0.00    -0.166 F 
HETATM   13  F   UNL     1      44.705   6.580  49.412  1.00  0.00    -0.166 F 
HETATM   14  F   UNL     1      46.454   5.522  50.155  1.00  0.00    -0.166 F 
ENDBRANCH   7  11
BRANCH   8  15
HETATM   15  C   UNL     1      46.846   2.881  49.012  1.00  0.00     0.311 C 
BRANCH  15  16
HETATM   16  N   UNL     1      47.239   2.084  47.852  1.00  0.00     0.096 N 
HETATM   17  C   UNL     1      48.575   1.507  48.043  1.00  0.00     0.303 C 
HETATM   18  C   UNL     1      48.988   0.672  46.825  1.00  0.00     0.302 C 
HETATM   19  N   UNL     1      48.949   1.480  45.600  1.00  0.00     0.087 N 
HETATM   20  C   UNL     1      47.613   2.059  45.410  1.00  0.00     0.302 C 
HETATM   21  C   UNL     1      49.340   0.683  44.440  1.00  0.00     0.310 C 
HETATM   22  C   UNL     1      47.200   2.893  46.628  1.00  0.00     0.303 C 
ENDBRANCH  15  16
ENDBRANCH   8  15
ENDBRANCH   2   5
BRANCH   3  23
HETATM   23  C   UNL     1      38.809   3.149  49.005  1.00  0.00     0.033 A 
HETATM   24  C   UNL     1      38.103   4.335  48.805  1.00  0.00     0.038 A 
HETATM   25  C   UNL     1      36.780   4.440  49.234  1.00  0.00     0.025 A 
HETATM   26  C   UNL     1      36.163   3.359  49.864  1.00  0.00    -0.043 A 
HETATM   27  C   UNL     1      36.869   2.173  50.064  1.00  0.00     0.009 A 
HETATM   28  C   UNL     1      34.746   3.435  50.337  1.00  0.00     0.049 C 
HETATM   29  C   UNL     1      38.192   2.068  49.635  1.00  0.00     0.017 A 
BRANCH  25  30
HETATM   30  C   UNL     1      36.076   5.668  49.018  1.00  0.00    -0.059 C 
HETATM   31  C   UNL     1      35.485   6.698  48.836  1.00  0.00    -0.040 C 
BRANCH  31  32
HETATM   32  C   UNL     1      34.782   7.924  48.621  1.00  0.00     0.131 A 
HETATM   33  N   UNL     1      34.249   8.736  49.588  1.00  0.00    -0.206 N 
HETATM   34  N   UNL     1      34.296   8.511  50.932  1.00  0.00    -0.177 NA
HETATM   35  C   UNL     1      33.663   9.809  48.942  1.00  0.00     0.151 A 
HETATM   36  C   UNL     1      33.712   9.439  51.621  1.00  0.00     0.139 A 
HETATM   37  C   UNL     1      33.042  10.646  51.080  1.00  0.00     0.025 A 
HETATM   38  C   UNL     1      33.041  10.790  49.750  1.00  0.00     0.054 A 
HETATM   39  N   UNL     1      33.801   9.713  47.634  1.00  0.00    -0.238 NA
HETATM   40  C   UNL     1      34.494   8.547  47.430  1.00  0.00     0.160 A 
ENDBRANCH  31  32
ENDBRANCH  25  30
ENDBRANCH   3  23
TORSDOF 7
