REMARK VINA RESULT:     -11.9      0.000      0.000
REMARK  7 active torsions:
REMARK  status: ('A' for Active; 'I' for Inactive)
REMARK    1  A    between atoms: N_5  and  C_15 
REMARK    2  A    between atoms: N_7  and  C_22 
REMARK       I    between atoms: N_7  and  C_24 
REMARK    3  A    between atoms: C_15  and  C_16 
REMARK    4  A    between atoms: C_18  and  C_23 
REMARK    5  A    between atoms: C_24  and  C_25 
REMARK    6  A    between atoms: C_28  and  C_32 
REMARK    7  A    between atoms: C_33  and  C_35 
ROOT
HETATM    1  O   UNL     1      40.408  16.863  39.248  1.00  0.00    -0.267 OA
HETATM    2  N   UNL     1      40.989  14.586  39.207  1.00  0.00    -0.323 N 
HETATM    3  C   UNL     1      40.116  15.679  39.129  1.00  0.00     0.256 C 
HETATM    4  H   UNL     1      40.609  13.657  39.047  1.00  0.00     0.169 HD
ENDROOT
BRANCH   2   5
HETATM    5  C   UNL     1      42.365  14.601  39.434  1.00  0.00     0.035 A 
HETATM    6  C   UNL     1      42.967  13.561  40.144  1.00  0.00     0.046 A 
HETATM    7  C   UNL     1      44.344  13.576  40.371  1.00  0.00     0.058 A 
HETATM    8  C   UNL     1      45.118  14.630  39.888  1.00  0.00    -0.015 A 
HETATM    9  C   UNL     1      44.517  15.669  39.178  1.00  0.00     0.012 A 
HETATM   10  C   UNL     1      43.140  15.654  38.952  1.00  0.00     0.030 A 
BRANCH   7  11
HETATM   11  C   UNL     1      44.966  12.451  41.131  1.00  0.00     0.418 C 
HETATM   12  F   UNL     1      46.058  11.912  40.513  1.00  0.00    -0.166 F 
HETATM   13  F   UNL     1      45.398  12.808  42.375  1.00  0.00    -0.166 F 
HETATM   14  F   UNL     1      44.104  11.411  41.326  1.00  0.00    -0.166 F 
ENDBRANCH   7  11
BRANCH   8  15
HETATM   15  C   UNL     1      46.606  14.668  40.119  1.00  0.00     0.311 C 
BRANCH  15  16
HETATM   16  N   UNL     1      46.951  15.440  41.311  1.00  0.00     0.096 N 
HETATM   17  C   UNL     1      47.496  16.752  40.942  1.00  0.00     0.303 C 
HETATM   18  C   UNL     1      47.861  17.562  42.192  1.00  0.00     0.302 C 
HETATM   19  N   UNL     1      48.816  16.828  43.030  1.00  0.00     0.087 N 
HETATM   20  C   UNL     1      48.272  15.515  43.397  1.00  0.00     0.302 C 
HETATM   21  C   UNL     1      49.161  17.600  44.222  1.00  0.00     0.310 C 
HETATM   22  C   UNL     1      47.907  14.705  42.148  1.00  0.00     0.303 C 
ENDBRANCH  15  16
ENDBRANCH   8  15
ENDBRANCH   2   5
BRANCH   3  23
HETATM   23  C   UNL     1      38.687  15.337  38.902  1.00  0.00     0.033 A 
HETATM   24  C   UNL     1      38.178  14.122  39.360  1.00  0.00     0.038 A 
HETATM   25  C   UNL     1      36.837  13.803  39.148  1.00  0.00     0.025 A 
HETATM   26  C   UNL     1      36.004  14.698  38.478  1.00  0.00    -0.043 A 
HETATM   27  C   UNL     1      36.513  15.914  38.020  1.00  0.00     0.009 A 
HETATM   28  C   UNL     1      34.562  14.390  38.232  1.00  0.00     0.049 C 
HETATM   29  C   UNL     1      37.854  16.233  38.232  1.00  0.00     0.017 A 
BRANCH  25  30
HETATM   30  C   UNL     1      36.339  12.548  39.626  1.00  0.00    -0.059 C 
HETATM   31  C   UNL     1      35.922  11.495  40.027  1.00  0.00    -0.040 C 
BRANCH  31  32
HETATM   32  C   UNL     1      35.424  10.243  40.505  1.00  0.00     0.131 A 
HETATM   33  N   UNL     1      35.214   9.899  41.815  1.00  0.00    -0.206 N 
HETATM   34  N   UNL     1      35.447  10.697  42.895  1.00  0.00    -0.177 NA
HETATM   35  C   UNL     1      34.729   8.604  41.823  1.00  0.00     0.151 A 
HETATM   36  C   UNL     1      35.161  10.121  44.021  1.00  0.00     0.139 A 
HETATM   37  C   UNL     1      34.635   8.746  44.195  1.00  0.00     0.025 A 
HETATM   38  C   UNL     1      34.436   8.030  43.083  1.00  0.00     0.054 A 
HETATM   39  N   UNL     1      34.625   8.125  40.599  1.00  0.00    -0.238 NA
HETATM   40  C   UNL     1      35.054   9.137  39.778  1.00  0.00     0.160 A 
ENDBRANCH  31  32
ENDBRANCH  25  30
ENDBRANCH   3  23
TORSDOF 7
