REMARK VINA RESULT:     -10.0     11.538     14.194
REMARK  7 active torsions:
REMARK  status: ('A' for Active; 'I' for Inactive)
REMARK    1  A    between atoms: N_5  and  C_15 
REMARK    2  A    between atoms: N_7  and  C_22 
REMARK       I    between atoms: N_7  and  C_24 
REMARK    3  A    between atoms: C_15  and  C_16 
REMARK    4  A    between atoms: C_18  and  C_23 
REMARK    5  A    between atoms: C_24  and  C_25 
REMARK    6  A    between atoms: C_28  and  C_32 
REMARK    7  A    between atoms: C_33  and  C_35 
ROOT
HETATM    1  O   UNL     1      39.798   2.242  47.045  1.00  0.00    -0.267 OA
HETATM    2  N   UNL     1      40.772   1.780  49.134  1.00  0.00    -0.323 N 
HETATM    3  C   UNL     1      39.735   2.146  48.266  1.00  0.00     0.256 C 
HETATM    4  H   UNL     1      40.561   1.703  50.126  1.00  0.00     0.169 HD
ENDROOT
BRANCH   2   5
HETATM    5  C   UNL     1      42.087   1.445  48.810  1.00  0.00     0.035 A 
HETATM    6  C   UNL     1      42.408   0.132  48.469  1.00  0.00     0.046 A 
HETATM    7  C   UNL     1      43.724  -0.203  48.144  1.00  0.00     0.058 A 
HETATM    8  C   UNL     1      44.716   0.777  48.159  1.00  0.00    -0.015 A 
HETATM    9  C   UNL     1      44.394   2.091  48.498  1.00  0.00     0.012 A 
HETATM   10  C   UNL     1      43.079   2.425  48.824  1.00  0.00     0.030 A 
BRANCH   7  11
HETATM   11  C   UNL     1      44.045  -1.615  47.781  1.00  0.00     0.418 C 
HETATM   12  F   UNL     1      44.839  -2.247  48.694  1.00  0.00    -0.166 F 
HETATM   13  F   UNL     1      42.941  -2.410  47.656  1.00  0.00    -0.166 F 
HETATM   14  F   UNL     1      44.704  -1.713  46.590  1.00  0.00    -0.166 F 
ENDBRANCH   7  11
BRANCH   8  15
HETATM   15  C   UNL     1      46.142   0.441  47.810  1.00  0.00     0.311 C 
BRANCH  15  16
HETATM   16  N   UNL     1      46.649   1.280  46.727  1.00  0.00     0.096 N 
HETATM   17  C   UNL     1      47.086   0.458  45.592  1.00  0.00     0.303 C 
HETATM   18  C   UNL     1      47.621   1.338  44.455  1.00  0.00     0.302 C 
HETATM   19  N   UNL     1      48.721   2.188  44.926  1.00  0.00     0.087 N 
HETATM   20  C   UNL     1      48.285   3.009  46.062  1.00  0.00     0.302 C 
HETATM   21  C   UNL     1      49.228   3.028  43.843  1.00  0.00     0.310 C 
HETATM   22  C   UNL     1      47.750   2.129  47.198  1.00  0.00     0.303 C 
ENDBRANCH  15  16
ENDBRANCH   8  15
ENDBRANCH   2   5
BRANCH   3  23
HETATM   23  C   UNL     1      38.442   2.473  48.920  1.00  0.00     0.033 A 
HETATM   24  C   UNL     1      37.836   3.709  48.692  1.00  0.00     0.038 A 
HETATM   25  C   UNL     1      36.622   4.015  49.306  1.00  0.00     0.025 A 
HETATM   26  C   UNL     1      36.012   3.085  50.148  1.00  0.00    -0.043 A 
HETATM   27  C   UNL     1      36.617   1.849  50.376  1.00  0.00     0.009 A 
HETATM   28  C   UNL     1      34.710   3.378  50.823  1.00  0.00     0.049 C 
HETATM   29  C   UNL     1      37.832   1.544  49.763  1.00  0.00     0.017 A 
BRANCH  25  30
HETATM   30  C   UNL     1      36.021   5.290  49.057  1.00  0.00    -0.059 C 
HETATM   31  C   UNL     1      35.517   6.361  48.848  1.00  0.00    -0.040 C 
BRANCH  31  32
HETATM   32  C   UNL     1      34.917   7.634  48.599  1.00  0.00     0.131 A 
HETATM   33  N   UNL     1      34.345   8.460  49.532  1.00  0.00    -0.206 N 
HETATM   34  N   UNL     1      34.248   8.206  50.868  1.00  0.00    -0.177 NA
HETATM   35  C   UNL     1      33.893   9.582  48.861  1.00  0.00     0.151 A 
HETATM   36  C   UNL     1      33.660   9.157  51.523  1.00  0.00     0.139 A 
HETATM   37  C   UNL     1      33.123  10.415  50.952  1.00  0.00     0.025 A 
HETATM   38  C   UNL     1      33.259  10.585  49.632  1.00  0.00     0.054 A 
HETATM   39  N   UNL     1      34.150   9.502  47.570  1.00  0.00    -0.238 NA
HETATM   40  C   UNL     1      34.785   8.298  47.403  1.00  0.00     0.160 A 
ENDBRANCH  31  32
ENDBRANCH  25  30
ENDBRANCH   3  23
TORSDOF 7
