REMARK VINA RESULT:      -9.1      9.437     12.386
REMARK  7 active torsions:
REMARK  status: ('A' for Active; 'I' for Inactive)
REMARK    1  A    between atoms: N_5  and  C_15 
REMARK    2  A    between atoms: N_7  and  C_22 
REMARK       I    between atoms: N_7  and  C_24 
REMARK    3  A    between atoms: C_15  and  C_16 
REMARK    4  A    between atoms: C_18  and  C_23 
REMARK    5  A    between atoms: C_24  and  C_25 
REMARK    6  A    between atoms: C_28  and  C_32 
REMARK    7  A    between atoms: C_33  and  C_35 
ROOT
HETATM    1  O   UNL     1      37.518   3.668  56.656  1.00  0.00    -0.267 OA
HETATM    2  N   UNL     1      35.415   3.253  55.691  1.00  0.00    -0.323 N 
HETATM    3  C   UNL     1      36.299   3.567  56.732  1.00  0.00     0.256 C 
HETATM    4  H   UNL     1      34.420   3.244  55.895  1.00  0.00     0.169 HD
ENDROOT
BRANCH   2   5
HETATM    5  C   UNL     1      35.721   2.992  54.355  1.00  0.00     0.035 A 
HETATM    6  C   UNL     1      35.240   3.834  53.352  1.00  0.00     0.046 A 
HETATM    7  C   UNL     1      35.545   3.573  52.016  1.00  0.00     0.058 A 
HETATM    8  C   UNL     1      36.332   2.471  51.684  1.00  0.00    -0.015 A 
HETATM    9  C   UNL     1      36.813   1.629  52.686  1.00  0.00     0.012 A 
HETATM   10  C   UNL     1      36.507   1.890  54.022  1.00  0.00     0.030 A 
BRANCH   7  11
HETATM   11  C   UNL     1      35.021   4.489  50.960  1.00  0.00     0.418 C 
HETATM   12  F   UNL     1      34.183   3.877  50.072  1.00  0.00    -0.166 F 
HETATM   13  F   UNL     1      34.308   5.542  51.456  1.00  0.00    -0.166 F 
HETATM   14  F   UNL     1      36.015   5.041  50.206  1.00  0.00    -0.166 F 
ENDBRANCH   7  11
BRANCH   8  15
HETATM   15  C   UNL     1      36.676   2.169  50.248  1.00  0.00     0.311 C 
BRANCH  15  16
HETATM   16  N   UNL     1      38.095   2.385  49.972  1.00  0.00     0.096 N 
HETATM   17  C   UNL     1      38.272   3.268  48.814  1.00  0.00     0.303 C 
HETATM   18  C   UNL     1      39.761   3.493  48.522  1.00  0.00     0.302 C 
HETATM   19  N   UNL     1      40.449   2.215  48.303  1.00  0.00     0.087 N 
HETATM   20  C   UNL     1      40.270   1.331  49.460  1.00  0.00     0.302 C 
HETATM   21  C   UNL     1      41.868   2.431  48.028  1.00  0.00     0.310 C 
HETATM   22  C   UNL     1      38.782   1.107  49.752  1.00  0.00     0.303 C 
ENDBRANCH  15  16
ENDBRANCH   8  15
ENDBRANCH   2   5
BRANCH   3  23
HETATM   23  C   UNL     1      35.669   3.767  58.064  1.00  0.00     0.033 A 
HETATM   24  C   UNL     1      36.362   3.418  59.223  1.00  0.00     0.038 A 
HETATM   25  C   UNL     1      35.770   3.607  60.472  1.00  0.00     0.025 A 
HETATM   26  C   UNL     1      34.486   4.144  60.563  1.00  0.00    -0.043 A 
HETATM   27  C   UNL     1      33.794   4.493  59.403  1.00  0.00     0.009 A 
HETATM   28  C   UNL     1      33.821   4.361  61.884  1.00  0.00     0.049 C 
HETATM   29  C   UNL     1      34.385   4.304  58.154  1.00  0.00     0.017 A 
BRANCH  25  30
HETATM   30  C   UNL     1      36.501   3.241  61.648  1.00  0.00    -0.059 C 
HETATM   31  C   UNL     1      37.113   2.933  62.635  1.00  0.00    -0.040 C 
BRANCH  31  32
HETATM   32  C   UNL     1      37.842   2.567  63.809  1.00  0.00     0.131 A 
HETATM   33  N   UNL     1      39.205   2.520  63.937  1.00  0.00    -0.206 N 
HETATM   34  N   UNL     1      40.109   2.814  62.959  1.00  0.00    -0.177 NA
HETATM   35  C   UNL     1      39.479   2.119  65.233  1.00  0.00     0.151 A 
HETATM   36  C   UNL     1      41.338   2.686  63.350  1.00  0.00     0.139 A 
HETATM   37  C   UNL     1      41.792   2.270  64.698  1.00  0.00     0.025 A 
HETATM   38  C   UNL     1      40.841   1.998  65.599  1.00  0.00     0.054 A 
HETATM   39  N   UNL     1      38.369   1.916  65.915  1.00  0.00    -0.238 NA
HETATM   40  C   UNL     1      37.352   2.193  65.037  1.00  0.00     0.160 A 
ENDBRANCH  31  32
ENDBRANCH  25  30
ENDBRANCH   3  23
TORSDOF 7
