REMARK VINA RESULT:      -9.1     17.657     23.885
REMARK  7 active torsions:
REMARK  status: ('A' for Active; 'I' for Inactive)
REMARK    1  A    between atoms: N_5  and  C_15 
REMARK    2  A    between atoms: N_7  and  C_22 
REMARK       I    between atoms: N_7  and  C_24 
REMARK    3  A    between atoms: C_15  and  C_16 
REMARK    4  A    between atoms: C_18  and  C_23 
REMARK    5  A    between atoms: C_24  and  C_25 
REMARK    6  A    between atoms: C_28  and  C_32 
REMARK    7  A    between atoms: C_33  and  C_35 
ROOT
HETATM    1  O   UNL     1      37.364   3.026  56.648  1.00  0.00    -0.267 OA
HETATM    2  N   UNL     1      35.270   3.264  55.607  1.00  0.00    -0.323 N 
HETATM    3  C   UNL     1      36.162   3.261  56.688  1.00  0.00     0.256 C 
HETATM    4  H   UNL     1      34.303   3.518  55.785  1.00  0.00     0.169 HD
ENDROOT
BRANCH   2   5
HETATM    5  C   UNL     1      35.548   3.005  54.264  1.00  0.00     0.035 A 
HETATM    6  C   UNL     1      35.119   3.894  53.279  1.00  0.00     0.046 A 
HETATM    7  C   UNL     1      35.396   3.635  51.936  1.00  0.00     0.058 A 
HETATM    8  C   UNL     1      36.104   2.488  51.580  1.00  0.00    -0.015 A 
HETATM    9  C   UNL     1      36.534   1.599  52.565  1.00  0.00     0.012 A 
HETATM   10  C   UNL     1      36.256   1.858  53.907  1.00  0.00     0.030 A 
BRANCH   7  11
HETATM   11  C   UNL     1      34.928   4.601  50.899  1.00  0.00     0.418 C 
HETATM   12  F   UNL     1      34.267   5.679  51.415  1.00  0.00    -0.166 F 
HETATM   13  F   UNL     1      35.940   5.128  50.149  1.00  0.00    -0.166 F 
HETATM   14  F   UNL     1      34.065   4.035  50.007  1.00  0.00    -0.166 F 
ENDBRANCH   7  11
BRANCH   8  15
HETATM   15  C   UNL     1      36.417   2.186  50.137  1.00  0.00     0.311 C 
BRANCH  15  16
HETATM   16  N   UNL     1      37.826   2.415  49.828  1.00  0.00     0.096 N 
HETATM   17  C   UNL     1      37.970   3.162  48.573  1.00  0.00     0.303 C 
HETATM   18  C   UNL     1      39.449   3.401  48.246  1.00  0.00     0.302 C 
HETATM   19  N   UNL     1      40.179   2.129  48.172  1.00  0.00     0.087 N 
HETATM   20  C   UNL     1      40.034   1.381  49.426  1.00  0.00     0.302 C 
HETATM   21  C   UNL     1      41.589   2.358  47.863  1.00  0.00     0.310 C 
HETATM   22  C   UNL     1      38.556   1.143  49.753  1.00  0.00     0.303 C 
ENDBRANCH  15  16
ENDBRANCH   8  15
ENDBRANCH   2   5
BRANCH   3  23
HETATM   23  C   UNL     1      35.556   3.552  58.013  1.00  0.00     0.033 A 
HETATM   24  C   UNL     1      36.284   3.319  59.180  1.00  0.00     0.038 A 
HETATM   25  C   UNL     1      35.715   3.593  60.424  1.00  0.00     0.025 A 
HETATM   26  C   UNL     1      34.418   4.099  60.502  1.00  0.00    -0.043 A 
HETATM   27  C   UNL     1      33.689   4.331  59.335  1.00  0.00     0.009 A 
HETATM   28  C   UNL     1      33.775   4.404  61.817  1.00  0.00     0.049 C 
HETATM   29  C   UNL     1      34.258   4.058  58.091  1.00  0.00     0.017 A 
BRANCH  25  30
HETATM   30  C   UNL     1      36.482   3.345  61.607  1.00  0.00    -0.059 C 
HETATM   31  C   UNL     1      37.126   3.136  62.600  1.00  0.00    -0.040 C 
BRANCH  31  32
HETATM   32  C   UNL     1      37.893   2.889  63.781  1.00  0.00     0.131 A 
HETATM   33  N   UNL     1      37.756   3.526  64.986  1.00  0.00    -0.206 N 
HETATM   34  N   UNL     1      36.861   4.514  65.268  1.00  0.00    -0.177 NA
HETATM   35  C   UNL     1      38.692   2.977  65.845  1.00  0.00     0.151 A 
HETATM   36  C   UNL     1      36.947   4.942  66.489  1.00  0.00     0.139 A 
HETATM   37  C   UNL     1      37.891   4.459  67.525  1.00  0.00     0.025 A 
HETATM   38  C   UNL     1      38.737   3.487  67.164  1.00  0.00     0.054 A 
HETATM   39  N   UNL     1      39.399   2.040  65.246  1.00  0.00    -0.238 NA
HETATM   40  C   UNL     1      38.907   1.980  63.967  1.00  0.00     0.160 A 
ENDBRANCH  31  32
ENDBRANCH  25  30
ENDBRANCH   3  23
TORSDOF 7
