REMARK VINA RESULT:      -9.2     20.688     27.600
REMARK  7 active torsions:
REMARK  status: ('A' for Active; 'I' for Inactive)
REMARK    1  A    between atoms: N_5  and  C_15 
REMARK    2  A    between atoms: N_7  and  C_22 
REMARK       I    between atoms: N_7  and  C_24 
REMARK    3  A    between atoms: C_15  and  C_16 
REMARK    4  A    between atoms: C_18  and  C_23 
REMARK    5  A    between atoms: C_24  and  C_25 
REMARK    6  A    between atoms: C_28  and  C_32 
REMARK    7  A    between atoms: C_33  and  C_35 
ROOT
HETATM    1  O   UNL     1      37.121   4.345  59.585  1.00  0.00    -0.267 OA
HETATM    2  N   UNL     1      35.708   3.126  61.014  1.00  0.00    -0.323 N 
HETATM    3  C   UNL     1      36.060   3.782  59.826  1.00  0.00     0.256 C 
HETATM    4  H   UNL     1      34.802   2.666  61.056  1.00  0.00     0.169 HD
ENDROOT
BRANCH   2   5
HETATM    5  C   UNL     1      36.476   2.969  62.168  1.00  0.00     0.035 A 
HETATM    6  C   UNL     1      36.233   3.773  63.281  1.00  0.00     0.046 A 
HETATM    7  C   UNL     1      37.001   3.616  64.436  1.00  0.00     0.058 A 
HETATM    8  C   UNL     1      38.010   2.654  64.476  1.00  0.00    -0.015 A 
HETATM    9  C   UNL     1      38.252   1.849  63.363  1.00  0.00     0.012 A 
HETATM   10  C   UNL     1      37.485   2.007  62.209  1.00  0.00     0.030 A 
BRANCH   7  11
HETATM   11  C   UNL     1      36.722   4.487  65.617  1.00  0.00     0.418 C 
HETATM   12  F   UNL     1      35.920   5.554  65.331  1.00  0.00    -0.166 F 
HETATM   13  F   UNL     1      36.098   3.834  66.640  1.00  0.00    -0.166 F 
HETATM   14  F   UNL     1      37.858   5.015  66.157  1.00  0.00    -0.166 F 
ENDBRANCH   7  11
BRANCH   8  15
HETATM   15  C   UNL     1      38.851   2.465  65.711  1.00  0.00     0.311 C 
BRANCH  15  16
HETATM   16  N   UNL     1      38.322   1.411  66.574  1.00  0.00     0.096 N 
HETATM   17  C   UNL     1      38.267   1.858  67.970  1.00  0.00     0.303 C 
HETATM   18  C   UNL     1      37.714   0.751  68.876  1.00  0.00     0.302 C 
HETATM   19  N   UNL     1      38.520  -0.471  68.760  1.00  0.00     0.087 N 
HETATM   20  C   UNL     1      38.576  -0.917  67.363  1.00  0.00     0.302 C 
HETATM   21  C   UNL     1      37.990  -1.525  69.622  1.00  0.00     0.310 C 
HETATM   22  C   UNL     1      39.129   0.190  66.458  1.00  0.00     0.303 C 
ENDBRANCH  15  16
ENDBRANCH   8  15
ENDBRANCH   2   5
BRANCH   3  23
HETATM   23  C   UNL     1      35.008   3.804  58.776  1.00  0.00     0.033 A 
HETATM   24  C   UNL     1      35.345   4.113  57.458  1.00  0.00     0.038 A 
HETATM   25  C   UNL     1      34.358   4.133  56.472  1.00  0.00     0.025 A 
HETATM   26  C   UNL     1      33.034   3.845  56.805  1.00  0.00    -0.043 A 
HETATM   27  C   UNL     1      32.698   3.536  58.123  1.00  0.00     0.009 A 
HETATM   28  C   UNL     1      31.949   3.857  55.775  1.00  0.00     0.049 C 
HETATM   29  C   UNL     1      33.685   3.516  59.108  1.00  0.00     0.017 A 
BRANCH  25  30
HETATM   30  C   UNL     1      34.727   4.454  55.127  1.00  0.00    -0.059 C 
HETATM   31  C   UNL     1      35.038   4.723  53.998  1.00  0.00    -0.040 C 
BRANCH  31  32
HETATM   32  C   UNL     1      35.406   5.043  52.654  1.00  0.00     0.131 A 
HETATM   33  N   UNL     1      34.884   6.052  51.887  1.00  0.00    -0.206 N 
HETATM   34  N   UNL     1      33.915   6.928  52.275  1.00  0.00    -0.177 NA
HETATM   35  C   UNL     1      35.524   6.004  50.661  1.00  0.00     0.151 A 
HETATM   36  C   UNL     1      33.606   7.783  51.351  1.00  0.00     0.139 A 
HETATM   37  C   UNL     1      34.197   7.863  49.995  1.00  0.00     0.025 A 
HETATM   38  C   UNL     1      35.142   6.964  49.695  1.00  0.00     0.054 A 
HETATM   39  N   UNL     1      36.410   5.029  50.623  1.00  0.00    -0.238 NA
HETATM   40  C   UNL     1      36.342   4.431  51.855  1.00  0.00     0.160 A 
ENDBRANCH  31  32
ENDBRANCH  25  30
ENDBRANCH   3  23
TORSDOF 7
