REMARK VINA RESULT:      -8.9      4.925     12.608
REMARK  7 active torsions:
REMARK  status: ('A' for Active; 'I' for Inactive)
REMARK    1  A    between atoms: N_5  and  C_15 
REMARK    2  A    between atoms: N_7  and  C_22 
REMARK       I    between atoms: N_7  and  C_24 
REMARK    3  A    between atoms: C_15  and  C_16 
REMARK    4  A    between atoms: C_18  and  C_23 
REMARK    5  A    between atoms: C_24  and  C_25 
REMARK    6  A    between atoms: C_28  and  C_32 
REMARK    7  A    between atoms: C_33  and  C_35 
ROOT
HETATM    1  O   UNL     1      41.401   3.414  52.231  1.00  0.00    -0.267 OA
HETATM    2  N   UNL     1      39.824   5.040  51.605  1.00  0.00    -0.323 N 
HETATM    3  C   UNL     1      41.098   4.460  51.669  1.00  0.00     0.256 C 
HETATM    4  H   UNL     1      39.714   5.895  51.067  1.00  0.00     0.169 HD
ENDROOT
BRANCH   2   5
HETATM    5  C   UNL     1      38.634   4.563  52.155  1.00  0.00     0.035 A 
HETATM    6  C   UNL     1      37.756   3.812  51.373  1.00  0.00     0.046 A 
HETATM    7  C   UNL     1      36.566   3.334  51.923  1.00  0.00     0.058 A 
HETATM    8  C   UNL     1      36.255   3.606  53.255  1.00  0.00    -0.015 A 
HETATM    9  C   UNL     1      37.134   4.356  54.037  1.00  0.00     0.012 A 
HETATM   10  C   UNL     1      38.323   4.834  53.487  1.00  0.00     0.030 A 
BRANCH   7  11
HETATM   11  C   UNL     1      35.642   2.531  51.067  1.00  0.00     0.418 C 
HETATM   12  F   UNL     1      35.298   1.328  51.615  1.00  0.00    -0.166 F 
HETATM   13  F   UNL     1      34.458   3.158  50.807  1.00  0.00    -0.166 F 
HETATM   14  F   UNL     1      36.179   2.240  49.848  1.00  0.00    -0.166 F 
ENDBRANCH   7  11
BRANCH   8  15
HETATM   15  C   UNL     1      34.977   3.100  53.872  1.00  0.00     0.311 C 
BRANCH  15  16
HETATM   16  N   UNL     1      34.884   3.446  55.289  1.00  0.00     0.096 N 
HETATM   17  C   UNL     1      35.304   2.319  56.129  1.00  0.00     0.303 C 
HETATM   18  C   UNL     1      35.203   2.680  57.616  1.00  0.00     0.302 C 
HETATM   19  N   UNL     1      33.839   3.097  57.962  1.00  0.00     0.087 N 
HETATM   20  C   UNL     1      33.418   4.223  57.120  1.00  0.00     0.302 C 
HETATM   21  C   UNL     1      33.745   3.443  59.378  1.00  0.00     0.310 C 
HETATM   22  C   UNL     1      33.519   3.862  55.633  1.00  0.00     0.303 C 
ENDBRANCH  15  16
ENDBRANCH   8  15
ENDBRANCH   2   5
BRANCH   3  23
HETATM   23  C   UNL     1      42.181   5.228  51.002  1.00  0.00     0.033 A 
HETATM   24  C   UNL     1      43.023   4.596  50.087  1.00  0.00     0.038 A 
HETATM   25  C   UNL     1      44.039   5.318  49.460  1.00  0.00     0.025 A 
HETATM   26  C   UNL     1      44.214   6.671  49.748  1.00  0.00    -0.043 A 
HETATM   27  C   UNL     1      43.372   7.303  50.664  1.00  0.00     0.009 A 
HETATM   28  C   UNL     1      45.292   7.476  49.096  1.00  0.00     0.049 C 
HETATM   29  C   UNL     1      42.356   6.582  51.290  1.00  0.00     0.017 A 
BRANCH  25  30
HETATM   30  C   UNL     1      44.891   4.647  48.526  1.00  0.00    -0.059 C 
HETATM   31  C   UNL     1      45.606   4.083  47.741  1.00  0.00    -0.040 C 
BRANCH  31  32
HETATM   32  C   UNL     1      46.456   3.413  46.808  1.00  0.00     0.131 A 
HETATM   33  N   UNL     1      46.679   2.063  46.735  1.00  0.00    -0.206 N 
HETATM   34  N   UNL     1      46.127   1.119  47.549  1.00  0.00    -0.177 NA
HETATM   35  C   UNL     1      47.563   1.851  45.692  1.00  0.00     0.151 A 
HETATM   36  C   UNL     1      46.510  -0.085  47.261  1.00  0.00     0.139 A 
HETATM   37  C   UNL     1      47.445  -0.474  46.180  1.00  0.00     0.025 A 
HETATM   38  C   UNL     1      47.943   0.514  45.428  1.00  0.00     0.054 A 
HETATM   39  N   UNL     1      47.900   2.986  45.113  1.00  0.00    -0.238 NA
HETATM   40  C   UNL     1      47.216   3.957  45.800  1.00  0.00     0.160 A 
ENDBRANCH  31  32
ENDBRANCH  25  30
ENDBRANCH   3  23
TORSDOF 7
