REMARK VINA RESULT:      -9.1      2.663      3.466
REMARK  7 active torsions:
REMARK  status: ('A' for Active; 'I' for Inactive)
REMARK    1  A    between atoms: N_5  and  C_15 
REMARK    2  A    between atoms: N_7  and  C_22 
REMARK       I    between atoms: N_7  and  C_24 
REMARK    3  A    between atoms: C_15  and  C_16 
REMARK    4  A    between atoms: C_18  and  C_23 
REMARK    5  A    between atoms: C_24  and  C_25 
REMARK    6  A    between atoms: C_28  and  C_32 
REMARK    7  A    between atoms: C_33  and  C_35 
ROOT
HETATM    1  O   UNL     1      40.217   2.768  46.976  1.00  0.00    -0.267 OA
HETATM    2  N   UNL     1      41.190   2.710  49.115  1.00  0.00    -0.323 N 
HETATM    3  C   UNL     1      40.134   2.797  48.199  1.00  0.00     0.256 C 
HETATM    4  H   UNL     1      40.965   2.708  50.106  1.00  0.00     0.169 HD
ENDROOT
BRANCH   2   5
HETATM    5  C   UNL     1      42.552   2.573  48.845  1.00  0.00     0.035 A 
HETATM    6  C   UNL     1      43.362   3.705  48.749  1.00  0.00     0.046 A 
HETATM    7  C   UNL     1      44.724   3.567  48.479  1.00  0.00     0.058 A 
HETATM    8  C   UNL     1      45.275   2.298  48.306  1.00  0.00    -0.015 A 
HETATM    9  C   UNL     1      44.466   1.166  48.403  1.00  0.00     0.012 A 
HETATM   10  C   UNL     1      43.104   1.304  48.672  1.00  0.00     0.030 A 
BRANCH   7  11
HETATM   11  C   UNL     1      45.572   4.793  48.382  1.00  0.00     0.418 C 
HETATM   12  F   UNL     1      46.461   4.924  49.410  1.00  0.00    -0.166 F 
HETATM   13  F   UNL     1      46.327   4.844  47.246  1.00  0.00    -0.166 F 
HETATM   14  F   UNL     1      44.834   5.940  48.385  1.00  0.00    -0.166 F 
ENDBRANCH   7  11
BRANCH   8  15
HETATM   15  C   UNL     1      46.743   2.124  48.015  1.00  0.00     0.311 C 
BRANCH  15  16
HETATM   16  N   UNL     1      47.359   1.137  48.899  1.00  0.00     0.096 N 
HETATM   17  C   UNL     1      47.904   1.780  50.100  1.00  0.00     0.303 C 
HETATM   18  C   UNL     1      48.553   0.745  51.027  1.00  0.00     0.302 C 
HETATM   19  N   UNL     1      49.604  -0.000  50.323  1.00  0.00     0.087 N 
HETATM   20  C   UNL     1      49.059  -0.642  49.121  1.00  0.00     0.302 C 
HETATM   21  C   UNL     1      50.219  -0.988  51.207  1.00  0.00     0.310 C 
HETATM   22  C   UNL     1      48.410   0.392  48.195  1.00  0.00     0.303 C 
ENDBRANCH  15  16
ENDBRANCH   8  15
ENDBRANCH   2   5
BRANCH   3  23
HETATM   23  C   UNL     1      38.784   2.967  48.797  1.00  0.00     0.033 A 
HETATM   24  C   UNL     1      38.081   4.157  48.608  1.00  0.00     0.038 A 
HETATM   25  C   UNL     1      36.814   4.316  49.169  1.00  0.00     0.025 A 
HETATM   26  C   UNL     1      36.249   3.285  49.920  1.00  0.00    -0.043 A 
HETATM   27  C   UNL     1      36.952   2.095  50.109  1.00  0.00     0.009 A 
HETATM   28  C   UNL     1      34.893   3.419  50.536  1.00  0.00     0.049 C 
HETATM   29  C   UNL     1      38.219   1.936  49.548  1.00  0.00     0.017 A 
BRANCH  25  30
HETATM   30  C   UNL     1      36.113   5.547  48.961  1.00  0.00    -0.059 C 
HETATM   31  C   UNL     1      35.525   6.580  48.788  1.00  0.00    -0.040 C 
BRANCH  31  32
HETATM   32  C   UNL     1      34.826   7.810  48.581  1.00  0.00     0.131 A 
HETATM   33  N   UNL     1      34.245   8.587  49.548  1.00  0.00    -0.206 N 
HETATM   34  N   UNL     1      34.232   8.319  50.885  1.00  0.00    -0.177 NA
HETATM   35  C   UNL     1      33.683   9.679  48.911  1.00  0.00     0.151 A 
HETATM   36  C   UNL     1      33.612   9.223  51.577  1.00  0.00     0.139 A 
HETATM   37  C   UNL     1      32.962  10.444  51.045  1.00  0.00     0.025 A 
HETATM   38  C   UNL     1      33.020  10.630  49.722  1.00  0.00     0.054 A 
HETATM   39  N   UNL     1      33.881   9.626  47.609  1.00  0.00    -0.238 NA
HETATM   40  C   UNL     1      34.589   8.470  47.399  1.00  0.00     0.160 A 
ENDBRANCH  31  32
ENDBRANCH  25  30
ENDBRANCH   3  23
TORSDOF 7
