REMARK VINA RESULT:     -11.0      2.442      3.609
REMARK  7 active torsions:
REMARK  status: ('A' for Active; 'I' for Inactive)
REMARK    1  A    between atoms: N_5  and  C_15 
REMARK    2  A    between atoms: N_7  and  C_22 
REMARK       I    between atoms: N_7  and  C_24 
REMARK    3  A    between atoms: C_15  and  C_16 
REMARK    4  A    between atoms: C_18  and  C_23 
REMARK    5  A    between atoms: C_24  and  C_25 
REMARK    6  A    between atoms: C_28  and  C_32 
REMARK    7  A    between atoms: C_33  and  C_35 
ROOT
HETATM    1  O   UNL     1      43.364  16.624  38.826  1.00  0.00    -0.267 OA
HETATM    2  N   UNL     1      42.720  14.667  39.958  1.00  0.00    -0.323 N 
HETATM    3  C   UNL     1      42.534  15.768  39.111  1.00  0.00     0.256 C 
HETATM    4  H   UNL     1      41.949  14.014  40.070  1.00  0.00     0.169 HD
ENDROOT
BRANCH   2   5
HETATM    5  C   UNL     1      43.873  14.304  40.653  1.00  0.00     0.035 A 
HETATM    6  C   UNL     1      44.390  15.149  41.636  1.00  0.00     0.046 A 
HETATM    7  C   UNL     1      45.545  14.786  42.332  1.00  0.00     0.058 A 
HETATM    8  C   UNL     1      46.179  13.578  42.046  1.00  0.00    -0.015 A 
HETATM    9  C   UNL     1      45.662  12.732  41.064  1.00  0.00     0.012 A 
HETATM   10  C   UNL     1      44.509  13.096  40.368  1.00  0.00     0.030 A 
BRANCH   7  11
HETATM   11  C   UNL     1      46.079  15.705  43.380  1.00  0.00     0.418 C 
HETATM   12  F   UNL     1      45.225  16.722  43.702  1.00  0.00    -0.166 F 
HETATM   13  F   UNL     1      46.354  15.081  44.563  1.00  0.00    -0.166 F 
HETATM   14  F   UNL     1      47.243  16.309  43.003  1.00  0.00    -0.166 F 
ENDBRANCH   7  11
BRANCH   8  15
HETATM   15  C   UNL     1      47.426  13.164  42.784  1.00  0.00     0.311 C 
BRANCH  15  16
HETATM   16  N   UNL     1      48.547  12.938  41.874  1.00  0.00     0.096 N 
HETATM   17  C   UNL     1      49.405  11.853  42.364  1.00  0.00     0.303 C 
HETATM   18  C   UNL     1      50.584  11.617  41.411  1.00  0.00     0.302 C 
HETATM   19  N   UNL     1      51.364  12.847  41.231  1.00  0.00     0.087 N 
HETATM   20  C   UNL     1      50.506  13.933  40.744  1.00  0.00     0.302 C 
HETATM   21  C   UNL     1      52.485  12.622  40.321  1.00  0.00     0.310 C 
HETATM   22  C   UNL     1      49.328  14.169  41.696  1.00  0.00     0.303 C 
ENDBRANCH  15  16
ENDBRANCH   8  15
ENDBRANCH   2   5
BRANCH   3  23
HETATM   23  C   UNL     1      41.172  15.903  38.532  1.00  0.00     0.033 A 
HETATM   24  C   UNL     1      40.127  15.115  39.015  1.00  0.00     0.038 A 
HETATM   25  C   UNL     1      38.848  15.243  38.472  1.00  0.00     0.025 A 
HETATM   26  C   UNL     1      38.614  16.159  37.446  1.00  0.00    -0.043 A 
HETATM   27  C   UNL     1      39.659  16.947  36.964  1.00  0.00     0.009 A 
HETATM   28  C   UNL     1      37.257  16.324  36.840  1.00  0.00     0.049 C 
HETATM   29  C   UNL     1      40.938  16.819  37.507  1.00  0.00     0.017 A 
BRANCH  25  30
HETATM   30  C   UNL     1      37.793  14.422  38.983  1.00  0.00    -0.059 C 
HETATM   31  C   UNL     1      36.906  13.733  39.411  1.00  0.00    -0.040 C 
BRANCH  31  32
HETATM   32  C   UNL     1      35.852  12.913  39.921  1.00  0.00     0.131 A 
HETATM   33  N   UNL     1      35.998  11.768  40.659  1.00  0.00    -0.206 N 
HETATM   34  N   UNL     1      37.183  11.208  41.035  1.00  0.00    -0.177 NA
HETATM   35  C   UNL     1      34.727  11.299  40.941  1.00  0.00     0.151 A 
HETATM   36  C   UNL     1      37.033  10.123  41.729  1.00  0.00     0.139 A 
HETATM   37  C   UNL     1      35.746   9.497  42.113  1.00  0.00     0.025 A 
HETATM   38  C   UNL     1      34.630  10.111  41.702  1.00  0.00     0.054 A 
HETATM   39  N   UNL     1      33.803  12.084  40.423  1.00  0.00    -0.238 NA
HETATM   40  C   UNL     1      34.495  13.086  39.791  1.00  0.00     0.160 A 
ENDBRANCH  31  32
ENDBRANCH  25  30
ENDBRANCH   3  23
TORSDOF 7
