REMARK VINA RESULT:      -9.3     11.885     14.587
REMARK  7 active torsions:
REMARK  status: ('A' for Active; 'I' for Inactive)
REMARK    1  A    between atoms: N_5  and  C_15 
REMARK    2  A    between atoms: N_7  and  C_22 
REMARK       I    between atoms: N_7  and  C_24 
REMARK    3  A    between atoms: C_15  and  C_16 
REMARK    4  A    between atoms: C_18  and  C_23 
REMARK    5  A    between atoms: C_24  and  C_25 
REMARK    6  A    between atoms: C_28  and  C_32 
REMARK    7  A    between atoms: C_33  and  C_35 
ROOT
HETATM    1  O   UNL     1      37.070   4.373  59.617  1.00  0.00    -0.267 OA
HETATM    2  N   UNL     1      35.605   3.211  61.041  1.00  0.00    -0.323 N 
HETATM    3  C   UNL     1      35.996   3.828  59.845  1.00  0.00     0.256 C 
HETATM    4  H   UNL     1      34.693   2.763  61.071  1.00  0.00     0.169 HD
ENDROOT
BRANCH   2   5
HETATM    5  C   UNL     1      36.339   3.079  62.219  1.00  0.00     0.035 A 
HETATM    6  C   UNL     1      36.049   3.890  63.316  1.00  0.00     0.046 A 
HETATM    7  C   UNL     1      36.783   3.758  64.495  1.00  0.00     0.058 A 
HETATM    8  C   UNL     1      37.806   2.814  64.577  1.00  0.00    -0.015 A 
HETATM    9  C   UNL     1      38.096   2.002  63.481  1.00  0.00     0.012 A 
HETATM   10  C   UNL     1      37.362   2.135  62.302  1.00  0.00     0.030 A 
BRANCH   7  11
HETATM   11  C   UNL     1      36.454   4.637  65.657  1.00  0.00     0.418 C 
HETATM   12  F   UNL     1      36.085   3.946  66.776  1.00  0.00    -0.166 F 
HETATM   13  F   UNL     1      37.493   5.429  66.052  1.00  0.00    -0.166 F 
HETATM   14  F   UNL     1      35.421   5.488  65.393  1.00  0.00    -0.166 F 
ENDBRANCH   7  11
BRANCH   8  15
HETATM   15  C   UNL     1      38.612   2.652  65.839  1.00  0.00     0.311 C 
BRANCH  15  16
HETATM   16  N   UNL     1      39.785   1.805  65.630  1.00  0.00     0.096 N 
HETATM   17  C   UNL     1      39.776   0.665  66.554  1.00  0.00     0.303 C 
HETATM   18  C   UNL     1      41.007  -0.223  66.337  1.00  0.00     0.302 C 
HETATM   19  N   UNL     1      42.244   0.552  66.492  1.00  0.00     0.087 N 
HETATM   20  C   UNL     1      42.253   1.694  65.571  1.00  0.00     0.302 C 
HETATM   21  C   UNL     1      43.417  -0.294  66.282  1.00  0.00     0.310 C 
HETATM   22  C   UNL     1      41.021   2.581  65.787  1.00  0.00     0.303 C 
ENDBRANCH  15  16
ENDBRANCH   8  15
ENDBRANCH   2   5
BRANCH   3  23
HETATM   23  C   UNL     1      34.974   3.832  58.766  1.00  0.00     0.033 A 
HETATM   24  C   UNL     1      35.339   4.158  57.459  1.00  0.00     0.038 A 
HETATM   25  C   UNL     1      34.379   4.160  56.447  1.00  0.00     0.025 A 
HETATM   26  C   UNL     1      33.054   3.837  56.741  1.00  0.00    -0.043 A 
HETATM   27  C   UNL     1      32.689   3.512  58.048  1.00  0.00     0.009 A 
HETATM   28  C   UNL     1      31.999   3.830  55.682  1.00  0.00     0.049 C 
HETATM   29  C   UNL     1      33.649   3.510  59.060  1.00  0.00     0.017 A 
BRANCH  25  30
HETATM   30  C   UNL     1      34.778   4.499  55.115  1.00  0.00    -0.059 C 
HETATM   31  C   UNL     1      35.113   4.783  53.996  1.00  0.00    -0.040 C 
BRANCH  31  32
HETATM   32  C   UNL     1      35.512   5.122  52.666  1.00  0.00     0.131 A 
HETATM   33  N   UNL     1      34.949   6.084  51.869  1.00  0.00    -0.206 N 
HETATM   34  N   UNL     1      33.902   6.888  52.208  1.00  0.00    -0.177 NA
HETATM   35  C   UNL     1      35.641   6.076  50.670  1.00  0.00     0.151 A 
HETATM   36  C   UNL     1      33.569   7.711  51.264  1.00  0.00     0.139 A 
HETATM   37  C   UNL     1      34.209   7.826  49.932  1.00  0.00     0.025 A 
HETATM   38  C   UNL     1      35.229   6.998  49.680  1.00  0.00     0.054 A 
HETATM   39  N   UNL     1      36.597   5.169  50.677  1.00  0.00    -0.238 NA
HETATM   40  C   UNL     1      36.523   4.575  51.912  1.00  0.00     0.160 A 
ENDBRANCH  31  32
ENDBRANCH  25  30
ENDBRANCH   3  23
TORSDOF 7
