REMARK VINA RESULT:      -9.4     18.916     23.779
REMARK  7 active torsions:
REMARK  status: ('A' for Active; 'I' for Inactive)
REMARK    1  A    between atoms: N_5  and  C_15 
REMARK    2  A    between atoms: N_7  and  C_22 
REMARK       I    between atoms: N_7  and  C_24 
REMARK    3  A    between atoms: C_15  and  C_16 
REMARK    4  A    between atoms: C_18  and  C_23 
REMARK    5  A    between atoms: C_24  and  C_25 
REMARK    6  A    between atoms: C_28  and  C_32 
REMARK    7  A    between atoms: C_33  and  C_35 
ROOT
HETATM    1  O   UNL     1      37.030   4.182  59.376  1.00  0.00    -0.267 OA
HETATM    2  N   UNL     1      35.611   3.093  60.901  1.00  0.00    -0.323 N 
HETATM    3  C   UNL     1      35.965   3.649  59.664  1.00  0.00     0.256 C 
HETATM    4  H   UNL     1      34.702   2.646  60.982  1.00  0.00     0.169 HD
ENDROOT
BRANCH   2   5
HETATM    5  C   UNL     1      36.381   3.022  62.062  1.00  0.00     0.035 A 
HETATM    6  C   UNL     1      36.052   3.810  63.165  1.00  0.00     0.046 A 
HETATM    7  C   UNL     1      36.822   3.740  64.327  1.00  0.00     0.058 A 
HETATM    8  C   UNL     1      37.919   2.881  64.385  1.00  0.00    -0.015 A 
HETATM    9  C   UNL     1      38.247   2.092  63.282  1.00  0.00     0.012 A 
HETATM   10  C   UNL     1      37.478   2.164  62.121  1.00  0.00     0.030 A 
BRANCH   7  11
HETATM   11  C   UNL     1      36.450   4.591  65.497  1.00  0.00     0.418 C 
HETATM   12  F   UNL     1      35.946   3.883  66.550  1.00  0.00    -0.166 F 
HETATM   13  F   UNL     1      37.499   5.299  66.010  1.00  0.00    -0.166 F 
HETATM   14  F   UNL     1      35.498   5.517  65.187  1.00  0.00    -0.166 F 
ENDBRANCH   7  11
BRANCH   8  15
HETATM   15  C   UNL     1      38.764   2.786  65.628  1.00  0.00     0.311 C 
BRANCH  15  16
HETATM   16  N   UNL     1      38.363   1.664  66.475  1.00  0.00     0.096 N 
HETATM   17  C   UNL     1      38.239   2.086  67.875  1.00  0.00     0.303 C 
HETATM   18  C   UNL     1      37.820   0.908  68.764  1.00  0.00     0.302 C 
HETATM   19  N   UNL     1      38.774  -0.201  68.645  1.00  0.00     0.087 N 
HETATM   20  C   UNL     1      38.900  -0.621  67.245  1.00  0.00     0.302 C 
HETATM   21  C   UNL     1      38.373  -1.323  69.491  1.00  0.00     0.310 C 
HETATM   22  C   UNL     1      39.318   0.556  66.356  1.00  0.00     0.303 C 
ENDBRANCH  15  16
ENDBRANCH   8  15
ENDBRANCH   2   5
BRANCH   3  23
HETATM   23  C   UNL     1      34.911   3.596  58.618  1.00  0.00     0.033 A 
HETATM   24  C   UNL     1      35.262   3.400  57.282  1.00  0.00     0.038 A 
HETATM   25  C   UNL     1      34.272   3.350  56.300  1.00  0.00     0.025 A 
HETATM   26  C   UNL     1      32.931   3.495  56.654  1.00  0.00    -0.043 A 
HETATM   27  C   UNL     1      32.580   3.691  57.990  1.00  0.00     0.009 A 
HETATM   28  C   UNL     1      31.843   3.447  55.629  1.00  0.00     0.049 C 
HETATM   29  C   UNL     1      33.569   3.741  58.971  1.00  0.00     0.017 A 
BRANCH  25  30
HETATM   30  C   UNL     1      34.658   3.150  54.936  1.00  0.00    -0.059 C 
HETATM   31  C   UNL     1      34.982   2.981  53.791  1.00  0.00    -0.040 C 
BRANCH  31  32
HETATM   32  C   UNL     1      35.366   2.781  52.429  1.00  0.00     0.131 A 
HETATM   33  N   UNL     1      35.853   3.734  51.574  1.00  0.00    -0.206 N 
HETATM   34  N   UNL     1      36.054   5.048  51.876  1.00  0.00    -0.177 NA
HETATM   35  C   UNL     1      36.095   3.110  50.363  1.00  0.00     0.151 A 
HETATM   36  C   UNL     1      36.524   5.731  50.879  1.00  0.00     0.139 A 
HETATM   37  C   UNL     1      36.835   5.210  49.527  1.00  0.00     0.025 A 
HETATM   38  C   UNL     1      36.608   3.909  49.314  1.00  0.00     0.054 A 
HETATM   39  N   UNL     1      35.789   1.829  50.417  1.00  0.00    -0.238 NA
HETATM   40  C   UNL     1      35.338   1.619  51.695  1.00  0.00     0.160 A 
ENDBRANCH  31  32
ENDBRANCH  25  30
ENDBRANCH   3  23
TORSDOF 7
