REMARK VINA RESULT:      -9.8     15.068     17.966
REMARK  7 active torsions:
REMARK  status: ('A' for Active; 'I' for Inactive)
REMARK    1  A    between atoms: N_5  and  C_15 
REMARK    2  A    between atoms: N_7  and  C_22 
REMARK       I    between atoms: N_7  and  C_24 
REMARK    3  A    between atoms: C_15  and  C_16 
REMARK    4  A    between atoms: C_18  and  C_23 
REMARK    5  A    between atoms: C_24  and  C_25 
REMARK    6  A    between atoms: C_28  and  C_32 
REMARK    7  A    between atoms: C_33  and  C_35 
ROOT
HETATM    1  O   UNL     1      39.970   2.600  47.096  1.00  0.00    -0.267 OA
HETATM    2  N   UNL     1      40.800   1.730  49.116  1.00  0.00    -0.323 N 
HETATM    3  C   UNL     1      39.832   2.297  48.276  1.00  0.00     0.256 C 
HETATM    4  H   UNL     1      40.528   1.493  50.067  1.00  0.00     0.169 HD
ENDROOT
BRANCH   2   5
HETATM    5  C   UNL     1      42.115   1.387  48.803  1.00  0.00     0.035 A 
HETATM    6  C   UNL     1      42.432   0.069  48.473  1.00  0.00     0.046 A 
HETATM    7  C   UNL     1      43.748  -0.274  48.159  1.00  0.00     0.058 A 
HETATM    8  C   UNL     1      44.745   0.701  48.174  1.00  0.00    -0.015 A 
HETATM    9  C   UNL     1      44.428   2.019  48.503  1.00  0.00     0.012 A 
HETATM   10  C   UNL     1      43.112   2.361  48.818  1.00  0.00     0.030 A 
BRANCH   7  11
HETATM   11  C   UNL     1      44.064  -1.690  47.807  1.00  0.00     0.418 C 
HETATM   12  F   UNL     1      42.958  -2.451  47.556  1.00  0.00    -0.166 F 
HETATM   13  F   UNL     1      44.844  -1.814  46.694  1.00  0.00    -0.166 F 
HETATM   14  F   UNL     1      44.738  -2.339  48.801  1.00  0.00    -0.166 F 
ENDBRANCH   7  11
BRANCH   8  15
HETATM   15  C   UNL     1      46.172   0.355  47.838  1.00  0.00     0.311 C 
BRANCH  15  16
HETATM   16  N   UNL     1      46.711   1.225  46.794  1.00  0.00     0.096 N 
HETATM   17  C   UNL     1      46.960   0.467  45.562  1.00  0.00     0.303 C 
HETATM   18  C   UNL     1      47.527   1.379  44.466  1.00  0.00     0.302 C 
HETATM   19  N   UNL     1      48.757   2.038  44.921  1.00  0.00     0.087 N 
HETATM   20  C   UNL     1      48.509   2.793  46.154  1.00  0.00     0.302 C 
HETATM   21  C   UNL     1      49.295   2.908  43.877  1.00  0.00     0.310 C 
HETATM   22  C   UNL     1      47.942   1.883  47.248  1.00  0.00     0.303 C 
ENDBRANCH  15  16
ENDBRANCH   8  15
ENDBRANCH   2   5
BRANCH   3  23
HETATM   23  C   UNL     1      38.519   2.575  48.913  1.00  0.00     0.033 A 
HETATM   24  C   UNL     1      37.887   3.801  48.707  1.00  0.00     0.038 A 
HETATM   25  C   UNL     1      36.654   4.060  49.305  1.00  0.00     0.025 A 
HETATM   26  C   UNL     1      36.051   3.093  50.109  1.00  0.00    -0.043 A 
HETATM   27  C   UNL     1      36.683   1.867  50.316  1.00  0.00     0.009 A 
HETATM   28  C   UNL     1      34.730   3.336  50.766  1.00  0.00     0.049 C 
HETATM   29  C   UNL     1      37.916   1.608  49.718  1.00  0.00     0.017 A 
BRANCH  25  30
HETATM   30  C   UNL     1      36.027   5.327  49.079  1.00  0.00    -0.059 C 
HETATM   31  C   UNL     1      35.499   6.390  48.889  1.00  0.00    -0.040 C 
BRANCH  31  32
HETATM   32  C   UNL     1      34.872   7.655  48.663  1.00  0.00     0.131 A 
HETATM   33  N   UNL     1      34.312   8.465  49.616  1.00  0.00    -0.206 N 
HETATM   34  N   UNL     1      34.253   8.201  50.952  1.00  0.00    -0.177 NA
HETATM   35  C   UNL     1      33.824   9.584  48.964  1.00  0.00     0.151 A 
HETATM   36  C   UNL     1      33.666   9.138  51.628  1.00  0.00     0.139 A 
HETATM   37  C   UNL     1      33.095  10.391  51.079  1.00  0.00     0.025 A 
HETATM   38  C   UNL     1      33.194  10.571  49.757  1.00  0.00     0.054 A 
HETATM   39  N   UNL     1      34.049   9.516  47.667  1.00  0.00    -0.238 NA
HETATM   40  C   UNL     1      34.699   8.324  47.475  1.00  0.00     0.160 A 
ENDBRANCH  31  32
ENDBRANCH  25  30
ENDBRANCH   3  23
TORSDOF 7
