REMARK VINA RESULT:     -10.0     12.518     19.746
REMARK  7 active torsions:
REMARK  status: ('A' for Active; 'I' for Inactive)
REMARK    1  A    between atoms: N_5  and  C_15 
REMARK    2  A    between atoms: N_7  and  C_22 
REMARK       I    between atoms: N_7  and  C_24 
REMARK    3  A    between atoms: C_15  and  C_16 
REMARK    4  A    between atoms: C_18  and  C_23 
REMARK    5  A    between atoms: C_24  and  C_25 
REMARK    6  A    between atoms: C_28  and  C_32 
REMARK    7  A    between atoms: C_33  and  C_35 
ROOT
HETATM    1  O   UNL     1      36.837   4.936  49.165  1.00  0.00    -0.267 OA
HETATM    2  N   UNL     1      35.285   4.512  50.879  1.00  0.00    -0.323 N 
HETATM    3  C   UNL     1      35.836   5.230  49.809  1.00  0.00     0.256 C 
HETATM    4  H   UNL     1      34.424   4.858  51.294  1.00  0.00     0.169 HD
ENDROOT
BRANCH   2   5
HETATM    5  C   UNL     1      35.745   3.322  51.442  1.00  0.00     0.035 A 
HETATM    6  C   UNL     1      36.400   3.340  52.674  1.00  0.00     0.046 A 
HETATM    7  C   UNL     1      36.860   2.149  53.237  1.00  0.00     0.058 A 
HETATM    8  C   UNL     1      36.664   0.941  52.569  1.00  0.00    -0.015 A 
HETATM    9  C   UNL     1      36.009   0.923  51.337  1.00  0.00     0.012 A 
HETATM   10  C   UNL     1      35.550   2.114  50.774  1.00  0.00     0.030 A 
BRANCH   7  11
HETATM   11  C   UNL     1      37.557   2.192  54.557  1.00  0.00     0.418 C 
HETATM   12  F   UNL     1      37.612   3.442  55.105  1.00  0.00    -0.166 F 
HETATM   13  F   UNL     1      36.968   1.410  55.509  1.00  0.00    -0.166 F 
HETATM   14  F   UNL     1      38.851   1.767  54.480  1.00  0.00    -0.166 F 
ENDBRANCH   7  11
BRANCH   8  15
HETATM   15  C   UNL     1      37.151  -0.358  53.157  1.00  0.00     0.311 C 
BRANCH  15  16
HETATM   16  N   UNL     1      37.727  -1.234  52.138  1.00  0.00     0.096 N 
HETATM   17  C   UNL     1      37.354  -2.632  52.382  1.00  0.00     0.303 C 
HETATM   18  C   UNL     1      37.960  -3.552  51.315  1.00  0.00     0.302 C 
HETATM   19  N   UNL     1      39.420  -3.411  51.272  1.00  0.00     0.087 N 
HETATM   20  C   UNL     1      39.793  -2.012  51.030  1.00  0.00     0.302 C 
HETATM   21  C   UNL     1      39.996  -4.286  50.253  1.00  0.00     0.310 C 
HETATM   22  C   UNL     1      39.187  -1.092  52.096  1.00  0.00     0.303 C 
ENDBRANCH  15  16
ENDBRANCH   8  15
ENDBRANCH   2   5
BRANCH   3  23
HETATM   23  C   UNL     1      35.128   6.488  49.454  1.00  0.00     0.033 A 
HETATM   24  C   UNL     1      35.191   6.980  48.150  1.00  0.00     0.038 A 
HETATM   25  C   UNL     1      34.525   8.160  47.818  1.00  0.00     0.025 A 
HETATM   26  C   UNL     1      33.797   8.848  48.789  1.00  0.00    -0.043 A 
HETATM   27  C   UNL     1      33.735   8.355  50.092  1.00  0.00     0.009 A 
HETATM   28  C   UNL     1      33.071  10.116  48.469  1.00  0.00     0.049 C 
HETATM   29  C   UNL     1      34.400   7.175  50.425  1.00  0.00     0.017 A 
BRANCH  25  30
HETATM   30  C   UNL     1      34.605   8.646  46.474  1.00  0.00    -0.059 C 
HETATM   31  C   UNL     1      34.673   9.054  45.345  1.00  0.00    -0.040 C 
BRANCH  31  32
HETATM   32  C   UNL     1      34.753   9.538  44.003  1.00  0.00     0.131 A 
HETATM   33  N   UNL     1      34.590   8.799  42.861  1.00  0.00    -0.206 N 
HETATM   34  N   UNL     1      34.324   7.463  42.808  1.00  0.00    -0.177 NA
HETATM   35  C   UNL     1      34.748   9.661  41.791  1.00  0.00     0.151 A 
HETATM   36  C   UNL     1      34.218   7.015  41.596  1.00  0.00     0.139 A 
HETATM   37  C   UNL     1      34.359   7.808  40.352  1.00  0.00     0.025 A 
HETATM   38  C   UNL     1      34.621   9.112  40.493  1.00  0.00     0.054 A 
HETATM   39  N   UNL     1      34.998  10.889  42.200  1.00  0.00    -0.238 NA
HETATM   40  C   UNL     1      35.002  10.819  43.570  1.00  0.00     0.160 A 
ENDBRANCH  31  32
ENDBRANCH  25  30
ENDBRANCH   3  23
TORSDOF 7
