REMARK VINA RESULT:     -11.0      1.582      2.354
REMARK  7 active torsions:
REMARK  status: ('A' for Active; 'I' for Inactive)
REMARK    1  A    between atoms: N_5  and  C_15 
REMARK    2  A    between atoms: N_7  and  C_22 
REMARK       I    between atoms: N_7  and  C_24 
REMARK    3  A    between atoms: C_15  and  C_16 
REMARK    4  A    between atoms: C_18  and  C_23 
REMARK    5  A    between atoms: C_24  and  C_25 
REMARK    6  A    between atoms: C_28  and  C_32 
REMARK    7  A    between atoms: C_33  and  C_35 
ROOT
HETATM    1  O   UNL     1      40.686  16.901  38.737  1.00  0.00    -0.267 OA
HETATM    2  N   UNL     1      41.119  14.682  39.380  1.00  0.00    -0.323 N 
HETATM    3  C   UNL     1      40.322  15.749  38.945  1.00  0.00     0.256 C 
HETATM    4  H   UNL     1      40.686  13.767  39.471  1.00  0.00     0.169 HD
ENDROOT
BRANCH   2   5
HETATM    5  C   UNL     1      42.484  14.692  39.667  1.00  0.00     0.035 A 
HETATM    6  C   UNL     1      43.032  13.700  40.481  1.00  0.00     0.046 A 
HETATM    7  C   UNL     1      44.398  13.710  40.770  1.00  0.00     0.058 A 
HETATM    8  C   UNL     1      45.214  14.709  40.242  1.00  0.00    -0.015 A 
HETATM    9  C   UNL     1      44.667  15.700  39.427  1.00  0.00     0.012 A 
HETATM   10  C   UNL     1      43.301  15.691  39.140  1.00  0.00     0.030 A 
BRANCH   7  11
HETATM   11  C   UNL     1      44.963  12.638  41.642  1.00  0.00     0.418 C 
HETATM   12  F   UNL     1      45.718  11.723  40.965  1.00  0.00    -0.166 F 
HETATM   13  F   UNL     1      45.776  13.112  42.630  1.00  0.00    -0.166 F 
HETATM   14  F   UNL     1      43.995  11.916  42.277  1.00  0.00    -0.166 F 
ENDBRANCH   7  11
BRANCH   8  15
HETATM   15  C   UNL     1      46.691  14.740  40.537  1.00  0.00     0.311 C 
BRANCH  15  16
HETATM   16  N   UNL     1      47.490  14.759  39.313  1.00  0.00     0.096 N 
HETATM   17  C   UNL     1      47.483  13.441  38.666  1.00  0.00     0.303 C 
HETATM   18  C   UNL     1      48.323  13.459  37.383  1.00  0.00     0.302 C 
HETATM   19  N   UNL     1      49.699  13.885  37.666  1.00  0.00     0.087 N 
HETATM   20  C   UNL     1      49.706  15.201  38.315  1.00  0.00     0.302 C 
HETATM   21  C   UNL     1      50.498  13.904  36.442  1.00  0.00     0.310 C 
HETATM   22  C   UNL     1      48.866  15.183  39.597  1.00  0.00     0.303 C 
ENDBRANCH  15  16
ENDBRANCH   8  15
ENDBRANCH   2   5
BRANCH   3  23
HETATM   23  C   UNL     1      38.884  15.431  38.748  1.00  0.00     0.033 A 
HETATM   24  C   UNL     1      38.360  14.235  39.240  1.00  0.00     0.038 A 
HETATM   25  C   UNL     1      37.009  13.937  39.055  1.00  0.00     0.025 A 
HETATM   26  C   UNL     1      36.183  14.835  38.380  1.00  0.00    -0.043 A 
HETATM   27  C   UNL     1      36.707  16.031  37.888  1.00  0.00     0.009 A 
HETATM   28  C   UNL     1      34.731  14.549  38.163  1.00  0.00     0.049 C 
HETATM   29  C   UNL     1      38.057  16.328  38.072  1.00  0.00     0.017 A 
BRANCH  25  30
HETATM   30  C   UNL     1      36.496  12.703  39.568  1.00  0.00    -0.059 C 
HETATM   31  C   UNL     1      36.065  11.668  39.998  1.00  0.00    -0.040 C 
BRANCH  31  32
HETATM   32  C   UNL     1      35.551  10.436  40.510  1.00  0.00     0.131 A 
HETATM   33  N   UNL     1      35.475  10.073  41.830  1.00  0.00    -0.206 N 
HETATM   34  N   UNL     1      35.882  10.829  42.889  1.00  0.00    -0.177 NA
HETATM   35  C   UNL     1      34.915   8.808  41.873  1.00  0.00     0.151 A 
HETATM   36  C   UNL     1      35.696  10.243  44.030  1.00  0.00     0.139 A 
HETATM   37  C   UNL     1      35.110   8.898  44.242  1.00  0.00     0.025 A 
HETATM   38  C   UNL     1      34.738   8.223  43.149  1.00  0.00     0.054 A 
HETATM   39  N   UNL     1      34.639   8.367  40.662  1.00  0.00    -0.238 NA
HETATM   40  C   UNL     1      35.030   9.371  39.814  1.00  0.00     0.160 A 
ENDBRANCH  31  32
ENDBRANCH  25  30
ENDBRANCH   3  23
TORSDOF 7
