REMARK VINA RESULT:      -9.1     15.023     18.761
REMARK  7 active torsions:
REMARK  status: ('A' for Active; 'I' for Inactive)
REMARK    1  A    between atoms: N_5  and  C_15 
REMARK    2  A    between atoms: N_7  and  C_22 
REMARK       I    between atoms: N_7  and  C_24 
REMARK    3  A    between atoms: C_15  and  C_16 
REMARK    4  A    between atoms: C_18  and  C_23 
REMARK    5  A    between atoms: C_24  and  C_25 
REMARK    6  A    between atoms: C_28  and  C_32 
REMARK    7  A    between atoms: C_33  and  C_35 
ROOT
HETATM    1  O   UNL     1      39.837   2.190  47.071  1.00  0.00    -0.267 OA
HETATM    2  N   UNL     1      40.802   1.705  49.159  1.00  0.00    -0.323 N 
HETATM    3  C   UNL     1      39.770   2.085  48.291  1.00  0.00     0.256 C 
HETATM    4  H   UNL     1      40.588   1.622  50.149  1.00  0.00     0.169 HD
ENDROOT
BRANCH   2   5
HETATM    5  C   UNL     1      42.116   1.365  48.835  1.00  0.00     0.035 A 
HETATM    6  C   UNL     1      42.423   0.060  48.448  1.00  0.00     0.046 A 
HETATM    7  C   UNL     1      43.737  -0.281  48.124  1.00  0.00     0.058 A 
HETATM    8  C   UNL     1      44.742   0.684  48.186  1.00  0.00    -0.015 A 
HETATM    9  C   UNL     1      44.435   1.989  48.572  1.00  0.00     0.012 A 
HETATM   10  C   UNL     1      43.121   2.328  48.897  1.00  0.00     0.030 A 
BRANCH   7  11
HETATM   11  C   UNL     1      44.042  -1.683  47.711  1.00  0.00     0.418 C 
HETATM   12  F   UNL     1      44.651  -2.420  48.686  1.00  0.00    -0.166 F 
HETATM   13  F   UNL     1      42.935  -2.400  47.359  1.00  0.00    -0.166 F 
HETATM   14  F   UNL     1      44.876  -1.741  46.632  1.00  0.00    -0.166 F 
ENDBRANCH   7  11
BRANCH   8  15
HETATM   15  C   UNL     1      46.167   0.341  47.839  1.00  0.00     0.311 C 
BRANCH  15  16
HETATM   16  N   UNL     1      47.070   0.569  48.966  1.00  0.00     0.096 N 
HETATM   17  C   UNL     1      48.236   1.357  48.549  1.00  0.00     0.303 C 
HETATM   18  C   UNL     1      49.185   1.594  49.729  1.00  0.00     0.302 C 
HETATM   19  N   UNL     1      49.612   0.320  50.320  1.00  0.00     0.087 N 
HETATM   20  C   UNL     1      48.447  -0.469  50.736  1.00  0.00     0.302 C 
HETATM   21  C   UNL     1      50.514   0.548  51.447  1.00  0.00     0.310 C 
HETATM   22  C   UNL     1      47.498  -0.706  49.555  1.00  0.00     0.303 C 
ENDBRANCH  15  16
ENDBRANCH   8  15
ENDBRANCH   2   5
BRANCH   3  23
HETATM   23  C   UNL     1      38.477   2.416  48.944  1.00  0.00     0.033 A 
HETATM   24  C   UNL     1      37.862   3.643  48.696  1.00  0.00     0.038 A 
HETATM   25  C   UNL     1      36.648   3.952  49.309  1.00  0.00     0.025 A 
HETATM   26  C   UNL     1      36.048   3.034  50.171  1.00  0.00    -0.043 A 
HETATM   27  C   UNL     1      36.663   1.806  50.419  1.00  0.00     0.009 A 
HETATM   28  C   UNL     1      34.747   3.330  50.846  1.00  0.00     0.049 C 
HETATM   29  C   UNL     1      37.877   1.498  49.806  1.00  0.00     0.017 A 
BRANCH  25  30
HETATM   30  C   UNL     1      36.038   5.218  49.039  1.00  0.00    -0.059 C 
HETATM   31  C   UNL     1      35.525   6.281  48.813  1.00  0.00    -0.040 C 
BRANCH  31  32
HETATM   32  C   UNL     1      34.915   7.546  48.544  1.00  0.00     0.131 A 
HETATM   33  N   UNL     1      34.281   8.352  49.453  1.00  0.00    -0.206 N 
HETATM   34  N   UNL     1      34.119   8.083  50.780  1.00  0.00    -0.177 NA
HETATM   35  C   UNL     1      33.844   9.472  48.770  1.00  0.00     0.151 A 
HETATM   36  C   UNL     1      33.480   9.017  51.411  1.00  0.00     0.139 A 
HETATM   37  C   UNL     1      32.951  10.271  50.824  1.00  0.00     0.025 A 
HETATM   38  C   UNL     1      33.152  10.456  49.515  1.00  0.00     0.054 A 
HETATM   39  N   UNL     1      34.169   9.410  47.493  1.00  0.00    -0.238 NA
HETATM   40  C   UNL     1      34.834   8.219  47.349  1.00  0.00     0.160 A 
ENDBRANCH  31  32
ENDBRANCH  25  30
ENDBRANCH   3  23
TORSDOF 7
