REMARK VINA RESULT:      -6.2      1.551      1.959
REMARK  7 active torsions:
REMARK  status: ('A' for Active; 'I' for Inactive)
REMARK    1  A    between atoms: N_5  and  C_15 
REMARK    2  A    between atoms: N_7  and  C_22 
REMARK       I    between atoms: N_7  and  C_24 
REMARK    3  A    between atoms: C_15  and  C_16 
REMARK    4  A    between atoms: C_18  and  C_23 
REMARK    5  A    between atoms: C_24  and  C_25 
REMARK    6  A    between atoms: C_28  and  C_32 
REMARK    7  A    between atoms: C_33  and  C_35 
ROOT
HETATM    1  O   UNL     1      22.790  15.979  32.235  1.00  0.00    -0.267 OA
HETATM    2  N   UNL     1      24.361  17.616  32.850  1.00  0.00    -0.323 N 
HETATM    3  C   UNL     1      23.586  16.867  31.953  1.00  0.00     0.256 C 
HETATM    4  H   UNL     1      24.951  18.352  32.472  1.00  0.00     0.169 HD
ENDROOT
BRANCH   2   5
HETATM    5  C   UNL     1      24.397  17.521  34.241  1.00  0.00     0.035 A 
HETATM    6  C   UNL     1      25.288  16.642  34.857  1.00  0.00     0.046 A 
HETATM    7  C   UNL     1      25.324  16.546  36.249  1.00  0.00     0.058 A 
HETATM    8  C   UNL     1      24.470  17.330  37.023  1.00  0.00    -0.015 A 
HETATM    9  C   UNL     1      23.579  18.209  36.408  1.00  0.00     0.012 A 
HETATM   10  C   UNL     1      23.542  18.304  35.016  1.00  0.00     0.030 A 
BRANCH   7  11
HETATM   11  C   UNL     1      26.288  15.601  36.886  1.00  0.00     0.418 C 
HETATM   12  F   UNL     1      25.687  14.631  37.637  1.00  0.00    -0.166 F 
HETATM   13  F   UNL     1      27.065  14.927  35.988  1.00  0.00    -0.166 F 
HETATM   14  F   UNL     1      27.159  16.229  37.727  1.00  0.00    -0.166 F 
ENDBRANCH   7  11
BRANCH   8  15
HETATM   15  C   UNL     1      24.491  17.245  38.527  1.00  0.00     0.311 C 
BRANCH  15  16
HETATM   16  N   UNL     1      24.660  18.560  39.143  1.00  0.00     0.096 N 
HETATM   17  C   UNL     1      26.062  18.990  39.077  1.00  0.00     0.303 C 
HETATM   18  C   UNL     1      26.241  20.368  39.726  1.00  0.00     0.302 C 
HETATM   19  N   UNL     1      25.773  20.355  41.117  1.00  0.00     0.087 N 
HETATM   20  C   UNL     1      24.373  19.923  41.184  1.00  0.00     0.302 C 
HETATM   21  C   UNL     1      25.942  21.670  41.733  1.00  0.00     0.310 C 
HETATM   22  C   UNL     1      24.194  18.546  40.535  1.00  0.00     0.303 C 
ENDBRANCH  15  16
ENDBRANCH   8  15
ENDBRANCH   2   5
BRANCH   3  23
HETATM   23  C   UNL     1      23.790  17.185  30.516  1.00  0.00     0.033 A 
HETATM   24  C   UNL     1      25.082  17.317  30.006  1.00  0.00     0.038 A 
HETATM   25  C   UNL     1      25.273  17.615  28.657  1.00  0.00     0.025 A 
HETATM   26  C   UNL     1      24.172  17.780  27.817  1.00  0.00    -0.043 A 
HETATM   27  C   UNL     1      22.880  17.649  28.326  1.00  0.00     0.009 A 
HETATM   28  C   UNL     1      24.337  18.100  26.365  1.00  0.00     0.049 C 
HETATM   29  C   UNL     1      22.689  17.351  29.676  1.00  0.00     0.017 A 
BRANCH  25  30
HETATM   30  C   UNL     1      26.608  17.746  28.158  1.00  0.00    -0.059 C 
HETATM   31  C   UNL     1      27.729  17.857  27.738  1.00  0.00    -0.040 C 
BRANCH  31  32
HETATM   32  C   UNL     1      29.062  17.989  27.240  1.00  0.00     0.131 A 
HETATM   33  N   UNL     1      30.189  18.219  27.986  1.00  0.00    -0.206 N 
HETATM   34  N   UNL     1      30.232  18.364  29.341  1.00  0.00    -0.177 NA
HETATM   35  C   UNL     1      31.255  18.275  27.106  1.00  0.00     0.151 A 
HETATM   36  C   UNL     1      31.430  18.574  29.789  1.00  0.00     0.139 A 
HETATM   37  C   UNL     1      32.668  18.659  28.980  1.00  0.00     0.025 A 
HETATM   38  C   UNL     1      32.537  18.506  27.658  1.00  0.00     0.054 A 
HETATM   39  N   UNL     1      30.858  18.093  25.862  1.00  0.00    -0.238 NA
HETATM   40  C   UNL     1      29.500  17.915  25.940  1.00  0.00     0.160 A 
ENDBRANCH  31  32
ENDBRANCH  25  30
ENDBRANCH   3  23
TORSDOF 7
