REMARK VINA RESULT:      -5.4      2.416      3.416
REMARK  7 active torsions:
REMARK  status: ('A' for Active; 'I' for Inactive)
REMARK    1  A    between atoms: N_5  and  C_15 
REMARK    2  A    between atoms: N_7  and  C_22 
REMARK       I    between atoms: N_7  and  C_24 
REMARK    3  A    between atoms: C_15  and  C_16 
REMARK    4  A    between atoms: C_18  and  C_23 
REMARK    5  A    between atoms: C_24  and  C_25 
REMARK    6  A    between atoms: C_28  and  C_32 
REMARK    7  A    between atoms: C_33  and  C_35 
ROOT
HETATM    1  O   UNL     1      26.010  15.860  32.826  1.00  0.00    -0.267 OA
HETATM    2  N   UNL     1      24.280  17.411  33.178  1.00  0.00    -0.323 N 
HETATM    3  C   UNL     1      25.213  16.695  32.416  1.00  0.00     0.256 C 
HETATM    4  H   UNL     1      23.652  18.046  32.693  1.00  0.00     0.169 HD
ENDROOT
BRANCH   2   5
HETATM    5  C   UNL     1      24.054  17.334  34.553  1.00  0.00     0.035 A 
HETATM    6  C   UNL     1      24.999  17.841  35.445  1.00  0.00     0.046 A 
HETATM    7  C   UNL     1      24.773  17.763  36.820  1.00  0.00     0.058 A 
HETATM    8  C   UNL     1      23.601  17.180  37.301  1.00  0.00    -0.015 A 
HETATM    9  C   UNL     1      22.656  16.673  36.409  1.00  0.00     0.012 A 
HETATM   10  C   UNL     1      22.883  16.750  35.035  1.00  0.00     0.030 A 
BRANCH   7  11
HETATM   11  C   UNL     1      25.797  18.315  37.756  1.00  0.00     0.418 C 
HETATM   12  F   UNL     1      26.311  17.385  38.613  1.00  0.00    -0.166 F 
HETATM   13  F   UNL     1      26.879  18.854  37.122  1.00  0.00    -0.166 F 
HETATM   14  F   UNL     1      25.301  19.309  38.547  1.00  0.00    -0.166 F 
ENDBRANCH   7  11
BRANCH   8  15
HETATM   15  C   UNL     1      23.334  17.085  38.781  1.00  0.00     0.311 C 
BRANCH  15  16
HETATM   16  N   UNL     1      23.100  15.706  39.204  1.00  0.00     0.096 N 
HETATM   17  C   UNL     1      21.809  15.583  39.890  1.00  0.00     0.303 C 
HETATM   18  C   UNL     1      21.563  14.136  40.337  1.00  0.00     0.302 C 
HETATM   19  N   UNL     1      22.651  13.666  41.202  1.00  0.00     0.087 N 
HETATM   20  C   UNL     1      23.943  13.790  40.517  1.00  0.00     0.302 C 
HETATM   21  C   UNL     1      22.417  12.286  41.625  1.00  0.00     0.310 C 
HETATM   22  C   UNL     1      24.188  15.236  40.071  1.00  0.00     0.303 C 
ENDBRANCH  15  16
ENDBRANCH   8  15
ENDBRANCH   2   5
BRANCH   3  23
HETATM   23  C   UNL     1      25.234  17.021  30.966  1.00  0.00     0.033 A 
HETATM   24  C   UNL     1      26.439  17.340  30.339  1.00  0.00     0.038 A 
HETATM   25  C   UNL     1      26.458  17.644  28.978  1.00  0.00     0.025 A 
HETATM   26  C   UNL     1      25.272  17.630  28.243  1.00  0.00    -0.043 A 
HETATM   27  C   UNL     1      24.068  17.311  28.870  1.00  0.00     0.009 A 
HETATM   28  C   UNL     1      25.254  17.950  26.783  1.00  0.00     0.049 C 
HETATM   29  C   UNL     1      24.048  17.006  30.231  1.00  0.00     0.017 A 
BRANCH  25  30
HETATM   30  C   UNL     1      27.706  17.970  28.358  1.00  0.00    -0.059 C 
HETATM   31  C   UNL     1      28.754  18.242  27.837  1.00  0.00    -0.040 C 
BRANCH  31  32
HETATM   32  C   UNL     1      30.001  18.567  27.217  1.00  0.00     0.131 A 
HETATM   33  N   UNL     1      31.027  17.699  26.951  1.00  0.00    -0.206 N 
HETATM   34  N   UNL     1      31.036  16.365  27.235  1.00  0.00    -0.177 NA
HETATM   35  C   UNL     1      32.034  18.430  26.348  1.00  0.00     0.151 A 
HETATM   36  C   UNL     1      32.135  15.779  26.876  1.00  0.00     0.139 A 
HETATM   37  C   UNL     1      33.300  16.420  26.222  1.00  0.00     0.025 A 
HETATM   38  C   UNL     1      33.209  17.733  25.979  1.00  0.00     0.054 A 
HETATM   39  N   UNL     1      31.695  19.698  26.224  1.00  0.00    -0.238 NA
HETATM   40  C   UNL     1      30.436  19.788  26.760  1.00  0.00     0.160 A 
ENDBRANCH  31  32
ENDBRANCH  25  30
ENDBRANCH   3  23
TORSDOF 7
