REMARK VINA RESULT:      -6.1      0.000      0.000
REMARK  7 active torsions:
REMARK  status: ('A' for Active; 'I' for Inactive)
REMARK    1  A    between atoms: N_5  and  C_15 
REMARK    2  A    between atoms: N_7  and  C_22 
REMARK       I    between atoms: N_7  and  C_24 
REMARK    3  A    between atoms: C_15  and  C_16 
REMARK    4  A    between atoms: C_18  and  C_23 
REMARK    5  A    between atoms: C_24  and  C_25 
REMARK    6  A    between atoms: C_28  and  C_32 
REMARK    7  A    between atoms: C_33  and  C_35 
ROOT
HETATM    1  O   UNL     1      22.733  15.983  32.239  1.00  0.00    -0.267 OA
HETATM    2  N   UNL     1      24.382  17.548  32.838  1.00  0.00    -0.323 N 
HETATM    3  C   UNL     1      23.565  16.836  31.949  1.00  0.00     0.256 C 
HETATM    4  H   UNL     1      25.000  18.257  32.454  1.00  0.00     0.169 HD
ENDROOT
BRANCH   2   5
HETATM    5  C   UNL     1      24.430  17.448  34.228  1.00  0.00     0.035 A 
HETATM    6  C   UNL     1      25.347  16.589  34.834  1.00  0.00     0.046 A 
HETATM    7  C   UNL     1      25.395  16.489  36.226  1.00  0.00     0.058 A 
HETATM    8  C   UNL     1      24.528  17.249  37.009  1.00  0.00    -0.015 A 
HETATM    9  C   UNL     1      23.612  18.109  36.403  1.00  0.00     0.012 A 
HETATM   10  C   UNL     1      23.563  18.208  35.012  1.00  0.00     0.030 A 
BRANCH   7  11
HETATM   11  C   UNL     1      26.385  15.564  36.852  1.00  0.00     0.418 C 
HETATM   12  F   UNL     1      27.221  14.966  35.952  1.00  0.00    -0.166 F 
HETATM   13  F   UNL     1      27.209  16.176  37.753  1.00  0.00    -0.166 F 
HETATM   14  F   UNL     1      25.790  14.543  37.534  1.00  0.00    -0.166 F 
ENDBRANCH   7  11
BRANCH   8  15
HETATM   15  C   UNL     1      24.562  17.160  38.512  1.00  0.00     0.311 C 
BRANCH  15  16
HETATM   16  N   UNL     1      24.746  18.471  39.131  1.00  0.00     0.096 N 
HETATM   17  C   UNL     1      26.151  18.889  39.057  1.00  0.00     0.303 C 
HETATM   18  C   UNL     1      26.346  20.264  39.708  1.00  0.00     0.302 C 
HETATM   19  N   UNL     1      25.887  20.251  41.102  1.00  0.00     0.087 N 
HETATM   20  C   UNL     1      24.483  19.831  41.177  1.00  0.00     0.302 C 
HETATM   21  C   UNL     1      26.071  21.563  41.721  1.00  0.00     0.310 C 
HETATM   22  C   UNL     1      24.288  18.457  40.526  1.00  0.00     0.303 C 
ENDBRANCH  15  16
ENDBRANCH   8  15
ENDBRANCH   2   5
BRANCH   3  23
HETATM   23  C   UNL     1      23.766  17.147  30.510  1.00  0.00     0.033 A 
HETATM   24  C   UNL     1      25.056  17.271  29.996  1.00  0.00     0.038 A 
HETATM   25  C   UNL     1      25.244  17.562  28.645  1.00  0.00     0.025 A 
HETATM   26  C   UNL     1      24.141  17.729  27.807  1.00  0.00    -0.043 A 
HETATM   27  C   UNL     1      22.851  17.605  28.321  1.00  0.00     0.009 A 
HETATM   28  C   UNL     1      24.304  18.042  26.354  1.00  0.00     0.049 C 
HETATM   29  C   UNL     1      22.663  17.314  29.673  1.00  0.00     0.017 A 
BRANCH  25  30
HETATM   30  C   UNL     1      26.578  17.686  28.141  1.00  0.00    -0.059 C 
HETATM   31  C   UNL     1      27.699  17.789  27.719  1.00  0.00    -0.040 C 
BRANCH  31  32
HETATM   32  C   UNL     1      29.031  17.913  27.215  1.00  0.00     0.131 A 
HETATM   33  N   UNL     1      30.158  18.163  27.953  1.00  0.00    -0.206 N 
HETATM   34  N   UNL     1      30.204  18.340  29.304  1.00  0.00    -0.177 NA
HETATM   35  C   UNL     1      31.223  18.200  27.070  1.00  0.00     0.151 A 
HETATM   36  C   UNL     1      31.402  18.563  29.745  1.00  0.00     0.139 A 
HETATM   37  C   UNL     1      32.639  18.632  28.932  1.00  0.00     0.025 A 
HETATM   38  C   UNL     1      32.506  18.448  27.613  1.00  0.00     0.054 A 
HETATM   39  N   UNL     1      30.824  17.988  25.832  1.00  0.00    -0.238 NA
HETATM   40  C   UNL     1      29.467  17.808  25.916  1.00  0.00     0.160 A 
ENDBRANCH  31  32
ENDBRANCH  25  30
ENDBRANCH   3  23
TORSDOF 7
