REMARK VINA RESULT:      -9.1      4.343      7.737
REMARK  7 active torsions:
REMARK  status: ('A' for Active; 'I' for Inactive)
REMARK    1  A    between atoms: N_5  and  C_15 
REMARK    2  A    between atoms: N_7  and  C_22 
REMARK       I    between atoms: N_7  and  C_24 
REMARK    3  A    between atoms: C_15  and  C_16 
REMARK    4  A    between atoms: C_18  and  C_23 
REMARK    5  A    between atoms: C_24  and  C_25 
REMARK    6  A    between atoms: C_28  and  C_32 
REMARK    7  A    between atoms: C_33  and  C_35 
ROOT
HETATM    1  O   UNL     1      34.182   4.440  49.926  1.00  0.00    -0.267 OA
HETATM    2  N   UNL     1      35.141   5.478  51.804  1.00  0.00    -0.323 N 
HETATM    3  C   UNL     1      34.453   5.438  50.584  1.00  0.00     0.256 C 
HETATM    4  H   UNL     1      35.258   6.380  52.258  1.00  0.00     0.169 HD
ENDROOT
BRANCH   2   5
HETATM    5  C   UNL     1      35.662   4.408  52.532  1.00  0.00     0.035 A 
HETATM    6  C   UNL     1      36.660   4.630  53.481  1.00  0.00     0.046 A 
HETATM    7  C   UNL     1      37.181   3.560  54.209  1.00  0.00     0.058 A 
HETATM    8  C   UNL     1      36.703   2.269  53.988  1.00  0.00    -0.015 A 
HETATM    9  C   UNL     1      35.705   2.047  53.040  1.00  0.00     0.012 A 
HETATM   10  C   UNL     1      35.185   3.117  52.311  1.00  0.00     0.030 A 
BRANCH   7  11
HETATM   11  C   UNL     1      38.248   3.822  55.221  1.00  0.00     0.418 C 
HETATM   12  F   UNL     1      38.629   5.132  55.286  1.00  0.00    -0.166 F 
HETATM   13  F   UNL     1      37.883   3.491  56.494  1.00  0.00    -0.166 F 
HETATM   14  F   UNL     1      39.390   3.119  54.971  1.00  0.00    -0.166 F 
ENDBRANCH   7  11
BRANCH   8  15
HETATM   15  C   UNL     1      37.250   1.098  54.762  1.00  0.00     0.311 C 
BRANCH  15  16
HETATM   16  N   UNL     1      38.186   0.308  53.965  1.00  0.00     0.096 N 
HETATM   17  C   UNL     1      37.508  -0.837  53.346  1.00  0.00     0.303 C 
HETATM   18  C   UNL     1      38.490  -1.667  52.511  1.00  0.00     0.302 C 
HETATM   19  N   UNL     1      39.618  -2.122  53.332  1.00  0.00     0.087 N 
HETATM   20  C   UNL     1      40.296  -0.978  53.953  1.00  0.00     0.302 C 
HETATM   21  C   UNL     1      40.555  -2.911  52.534  1.00  0.00     0.310 C 
HETATM   22  C   UNL     1      39.313  -0.148  54.787  1.00  0.00     0.303 C 
ENDBRANCH  15  16
ENDBRANCH   8  15
ENDBRANCH   2   5
BRANCH   3  23
HETATM   23  C   UNL     1      34.043   6.759  50.040  1.00  0.00     0.033 A 
HETATM   24  C   UNL     1      34.387   7.115  48.736  1.00  0.00     0.038 A 
HETATM   25  C   UNL     1      34.001   8.355  48.226  1.00  0.00     0.025 A 
HETATM   26  C   UNL     1      33.271   9.239  49.020  1.00  0.00    -0.043 A 
HETATM   27  C   UNL     1      32.927   8.883  50.325  1.00  0.00     0.009 A 
HETATM   28  C   UNL     1      32.840  10.576  48.508  1.00  0.00     0.049 C 
HETATM   29  C   UNL     1      33.313   7.644  50.834  1.00  0.00     0.017 A 
BRANCH  25  30
HETATM   30  C   UNL     1      34.367   8.697  46.885  1.00  0.00    -0.059 C 
HETATM   31  C   UNL     1      34.673   8.985  45.760  1.00  0.00    -0.040 C 
BRANCH  31  32
HETATM   32  C   UNL     1      35.039   9.327  44.421  1.00  0.00     0.131 A 
HETATM   33  N   UNL     1      34.764   8.601  43.292  1.00  0.00    -0.206 N 
HETATM   34  N   UNL     1      34.092   7.415  43.252  1.00  0.00    -0.177 NA
HETATM   35  C   UNL     1      35.296   9.295  42.220  1.00  0.00     0.151 A 
HETATM   36  C   UNL     1      33.972   6.942  42.051  1.00  0.00     0.139 A 
HETATM   37  C   UNL     1      34.483   7.564  40.806  1.00  0.00     0.025 A 
HETATM   38  C   UNL     1      35.132   8.726  40.935  1.00  0.00     0.054 A 
HETATM   39  N   UNL     1      35.882  10.408  42.616  1.00  0.00    -0.238 NA
HETATM   40  C   UNL     1      35.725  10.433  43.978  1.00  0.00     0.160 A 
ENDBRANCH  31  32
ENDBRANCH  25  30
ENDBRANCH   3  23
TORSDOF 7
