REMARK VINA RESULT:      -5.5      3.345     11.629
REMARK  7 active torsions:
REMARK  status: ('A' for Active; 'I' for Inactive)
REMARK    1  A    between atoms: N_5  and  C_15 
REMARK    2  A    between atoms: N_7  and  C_22 
REMARK       I    between atoms: N_7  and  C_24 
REMARK    3  A    between atoms: C_15  and  C_16 
REMARK    4  A    between atoms: C_18  and  C_23 
REMARK    5  A    between atoms: C_24  and  C_25 
REMARK    6  A    between atoms: C_28  and  C_32 
REMARK    7  A    between atoms: C_33  and  C_35 
ROOT
HETATM    1  O   UNL     1      23.987  18.491  33.969  1.00  0.00    -0.267 OA
HETATM    2  N   UNL     1      23.919  16.433  32.835  1.00  0.00    -0.323 N 
HETATM    3  C   UNL     1      23.754  17.289  33.933  1.00  0.00     0.256 C 
HETATM    4  H   UNL     1      23.644  15.461  32.941  1.00  0.00     0.169 HD
ENDROOT
BRANCH   2   5
HETATM    5  C   UNL     1      24.377  16.755  31.558  1.00  0.00     0.035 A 
HETATM    6  C   UNL     1      23.470  17.119  30.562  1.00  0.00     0.046 A 
HETATM    7  C   UNL     1      23.928  17.440  29.284  1.00  0.00     0.058 A 
HETATM    8  C   UNL     1      25.293  17.398  29.003  1.00  0.00    -0.015 A 
HETATM    9  C   UNL     1      26.201  17.035  29.998  1.00  0.00     0.012 A 
HETATM   10  C   UNL     1      25.742  16.713  31.275  1.00  0.00     0.030 A 
BRANCH   7  11
HETATM   11  C   UNL     1      22.939  17.828  28.235  1.00  0.00     0.418 C 
HETATM   12  F   UNL     1      21.642  17.759  28.655  1.00  0.00    -0.166 F 
HETATM   13  F   UNL     1      23.101  19.105  27.780  1.00  0.00    -0.166 F 
HETATM   14  F   UNL     1      23.010  17.032  27.129  1.00  0.00    -0.166 F 
ENDBRANCH   7  11
BRANCH   8  15
HETATM   15  C   UNL     1      25.813  17.742  27.631  1.00  0.00     0.311 C 
BRANCH  15  16
HETATM   16  N   UNL     1      27.223  17.390  27.480  1.00  0.00     0.096 N 
HETATM   17  C   UNL     1      28.041  18.590  27.268  1.00  0.00     0.303 C 
HETATM   18  C   UNL     1      29.521  18.220  27.107  1.00  0.00     0.302 C 
HETATM   19  N   UNL     1      29.705  17.273  26.001  1.00  0.00     0.087 N 
HETATM   20  C   UNL     1      28.886  16.074  26.211  1.00  0.00     0.302 C 
HETATM   21  C   UNL     1      31.115  16.920  25.850  1.00  0.00     0.310 C 
HETATM   22  C   UNL     1      27.407  16.443  26.373  1.00  0.00     0.303 C 
ENDBRANCH  15  16
ENDBRANCH   8  15
ENDBRANCH   2   5
BRANCH   3  23
HETATM   23  C   UNL     1      23.268  16.640  35.179  1.00  0.00     0.033 A 
HETATM   24  C   UNL     1      23.638  17.152  36.423  1.00  0.00     0.038 A 
HETATM   25  C   UNL     1      23.181  16.543  37.591  1.00  0.00     0.025 A 
HETATM   26  C   UNL     1      22.355  15.421  37.517  1.00  0.00    -0.043 A 
HETATM   27  C   UNL     1      21.985  14.909  36.273  1.00  0.00     0.009 A 
HETATM   28  C   UNL     1      21.846  14.742  38.748  1.00  0.00     0.049 C 
HETATM   29  C   UNL     1      22.442  15.518  35.104  1.00  0.00     0.017 A 
BRANCH  25  30
HETATM   30  C   UNL     1      23.575  17.086  38.856  1.00  0.00    -0.059 C 
HETATM   31  C   UNL     1      23.906  17.542  39.917  1.00  0.00    -0.040 C 
BRANCH  31  32
HETATM   32  C   UNL     1      24.300  18.085  41.179  1.00  0.00     0.131 A 
HETATM   33  N   UNL     1      24.933  19.283  41.387  1.00  0.00    -0.206 N 
HETATM   34  N   UNL     1      25.301  20.168  40.417  1.00  0.00    -0.177 NA
HETATM   35  C   UNL     1      25.123  19.412  42.751  1.00  0.00     0.151 A 
HETATM   36  C   UNL     1      25.886  21.223  40.891  1.00  0.00     0.139 A 
HETATM   37  C   UNL     1      26.160  21.509  42.320  1.00  0.00     0.025 A 
HETATM   38  C   UNL     1      25.767  20.587  43.206  1.00  0.00     0.054 A 
HETATM   39  N   UNL     1      24.645  18.370  43.401  1.00  0.00    -0.238 NA
HETATM   40  C   UNL     1      24.133  17.544  42.432  1.00  0.00     0.160 A 
ENDBRANCH  31  32
ENDBRANCH  25  30
ENDBRANCH   3  23
TORSDOF 7
