REMARK VINA RESULT:      -5.6      1.714      2.076
REMARK  7 active torsions:
REMARK  status: ('A' for Active; 'I' for Inactive)
REMARK    1  A    between atoms: N_5  and  C_15 
REMARK    2  A    between atoms: N_7  and  C_22 
REMARK       I    between atoms: N_7  and  C_24 
REMARK    3  A    between atoms: C_15  and  C_16 
REMARK    4  A    between atoms: C_18  and  C_23 
REMARK    5  A    between atoms: C_24  and  C_25 
REMARK    6  A    between atoms: C_28  and  C_32 
REMARK    7  A    between atoms: C_33  and  C_35 
ROOT
HETATM    1  O   UNL     1      23.433  20.158  33.147  1.00  0.00    -0.267 OA
HETATM    2  N   UNL     1      23.815  17.852  33.393  1.00  0.00    -0.323 N 
HETATM    3  C   UNL     1      23.576  19.034  32.680  1.00  0.00     0.256 C 
HETATM    4  H   UNL     1      23.954  16.994  32.865  1.00  0.00     0.169 HD
ENDROOT
BRANCH   2   5
HETATM    5  C   UNL     1      23.943  17.692  34.773  1.00  0.00     0.035 A 
HETATM    6  C   UNL     1      24.975  16.910  35.292  1.00  0.00     0.046 A 
HETATM    7  C   UNL     1      25.102  16.750  36.673  1.00  0.00     0.058 A 
HETATM    8  C   UNL     1      24.199  17.374  37.532  1.00  0.00    -0.015 A 
HETATM    9  C   UNL     1      23.168  18.157  37.014  1.00  0.00     0.012 A 
HETATM   10  C   UNL     1      23.040  18.315  35.633  1.00  0.00     0.030 A 
BRANCH   7  11
HETATM   11  C   UNL     1      26.216  15.910  37.206  1.00  0.00     0.418 C 
HETATM   12  F   UNL     1      26.846  15.168  36.249  1.00  0.00    -0.166 F 
HETATM   13  F   UNL     1      27.205  16.634  37.806  1.00  0.00    -0.166 F 
HETATM   14  F   UNL     1      25.792  15.016  38.145  1.00  0.00    -0.166 F 
ENDBRANCH   7  11
BRANCH   8  15
HETATM   15  C   UNL     1      24.317  17.218  39.026  1.00  0.00     0.311 C 
BRANCH  15  16
HETATM   16  N   UNL     1      24.501  18.504  39.694  1.00  0.00     0.096 N 
HETATM   17  C   UNL     1      25.857  19.019  39.470  1.00  0.00     0.303 C 
HETATM   18  C   UNL     1      26.051  20.368  40.173  1.00  0.00     0.302 C 
HETATM   19  N   UNL     1      25.778  20.252  41.611  1.00  0.00     0.087 N 
HETATM   20  C   UNL     1      24.423  19.735  41.835  1.00  0.00     0.302 C 
HETATM   21  C   UNL     1      25.961  21.539  42.279  1.00  0.00     0.310 C 
HETATM   22  C   UNL     1      24.229  18.387  41.132  1.00  0.00     0.303 C 
ENDBRANCH  15  16
ENDBRANCH   8  15
ENDBRANCH   2   5
BRANCH   3  23
HETATM   23  C   UNL     1      23.463  18.877  31.206  1.00  0.00     0.033 A 
HETATM   24  C   UNL     1      24.432  18.159  30.504  1.00  0.00     0.038 A 
HETATM   25  C   UNL     1      24.324  18.012  29.121  1.00  0.00     0.025 A 
HETATM   26  C   UNL     1      23.249  18.581  28.440  1.00  0.00    -0.043 A 
HETATM   27  C   UNL     1      22.280  19.299  29.142  1.00  0.00     0.009 A 
HETATM   28  C   UNL     1      23.101  18.444  26.958  1.00  0.00     0.049 C 
HETATM   29  C   UNL     1      22.388  19.447  30.525  1.00  0.00     0.017 A 
BRANCH  25  30
HETATM   30  C   UNL     1      25.331  17.272  28.423  1.00  0.00    -0.059 C 
HETATM   31  C   UNL     1      26.177  16.650  27.837  1.00  0.00    -0.040 C 
BRANCH  31  32
HETATM   32  C   UNL     1      27.182  15.911  27.140  1.00  0.00     0.131 A 
HETATM   33  N   UNL     1      28.468  16.318  26.896  1.00  0.00    -0.206 N 
HETATM   34  N   UNL     1      29.013  17.507  27.279  1.00  0.00    -0.177 NA
HETATM   35  C   UNL     1      29.092  15.300  26.197  1.00  0.00     0.151 A 
HETATM   36  C   UNL     1      30.252  17.636  26.918  1.00  0.00     0.139 A 
HETATM   37  C   UNL     1      31.056  16.641  26.169  1.00  0.00     0.025 A 
HETATM   38  C   UNL     1      30.444  15.501  25.832  1.00  0.00     0.054 A 
HETATM   39  N   UNL     1      28.272  14.288  25.993  1.00  0.00    -0.238 NA
HETATM   40  C   UNL     1      27.087  14.661  26.576  1.00  0.00     0.160 A 
ENDBRANCH  31  32
ENDBRANCH  25  30
ENDBRANCH   3  23
TORSDOF 7
