REMARK VINA RESULT:      -5.3      2.773      4.319
REMARK  7 active torsions:
REMARK  status: ('A' for Active; 'I' for Inactive)
REMARK    1  A    between atoms: N_5  and  C_15 
REMARK    2  A    between atoms: N_7  and  C_22 
REMARK       I    between atoms: N_7  and  C_24 
REMARK    3  A    between atoms: C_15  and  C_16 
REMARK    4  A    between atoms: C_18  and  C_23 
REMARK    5  A    between atoms: C_24  and  C_25 
REMARK    6  A    between atoms: C_28  and  C_32 
REMARK    7  A    between atoms: C_33  and  C_35 
ROOT
HETATM    1  O   UNL     1      23.127  16.272  36.606  1.00  0.00    -0.267 OA
HETATM    2  N   UNL     1      23.076  18.585  36.187  1.00  0.00    -0.323 N 
HETATM    3  C   UNL     1      22.989  17.227  35.850  1.00  0.00     0.256 C 
HETATM    4  H   UNL     1      22.898  19.271  35.459  1.00  0.00     0.169 HD
ENDROOT
BRANCH   2   5
HETATM    5  C   UNL     1      23.335  19.144  37.438  1.00  0.00     0.035 A 
HETATM    6  C   UNL     1      24.628  19.114  37.961  1.00  0.00     0.046 A 
HETATM    7  C   UNL     1      24.888  19.674  39.213  1.00  0.00     0.058 A 
HETATM    8  C   UNL     1      23.854  20.263  39.940  1.00  0.00    -0.015 A 
HETATM    9  C   UNL     1      22.562  20.294  39.417  1.00  0.00     0.012 A 
HETATM   10  C   UNL     1      22.302  19.733  38.166  1.00  0.00     0.030 A 
BRANCH   7  11
HETATM   11  C   UNL     1      26.280  19.632  39.752  1.00  0.00     0.418 C 
HETATM   12  F   UNL     1      27.135  18.881  38.998  1.00  0.00    -0.166 F 
HETATM   13  F   UNL     1      26.866  20.862  39.841  1.00  0.00    -0.166 F 
HETATM   14  F   UNL     1      26.339  19.105  41.009  1.00  0.00    -0.166 F 
ENDBRANCH   7  11
BRANCH   8  15
HETATM   15  C   UNL     1      24.110  20.875  41.293  1.00  0.00     0.311 C 
BRANCH  15  16
HETATM   16  N   UNL     1      23.741  22.288  41.329  1.00  0.00     0.096 N 
HETATM   17  C   UNL     1      24.592  23.072  40.427  1.00  0.00     0.303 C 
HETATM   18  C   UNL     1      24.207  24.557  40.466  1.00  0.00     0.302 C 
HETATM   19  N   UNL     1      24.290  25.082  41.834  1.00  0.00     0.087 N 
HETATM   20  C   UNL     1      23.441  24.297  42.737  1.00  0.00     0.302 C 
HETATM   21  C   UNL     1      23.920  26.495  41.870  1.00  0.00     0.310 C 
HETATM   22  C   UNL     1      23.825  22.813  42.698  1.00  0.00     0.303 C 
ENDBRANCH  15  16
ENDBRANCH   8  15
ENDBRANCH   2   5
BRANCH   3  23
HETATM   23  C   UNL     1      22.725  16.943  34.415  1.00  0.00     0.033 A 
HETATM   24  C   UNL     1      23.732  17.136  33.469  1.00  0.00     0.038 A 
HETATM   25  C   UNL     1      23.484  16.868  32.123  1.00  0.00     0.025 A 
HETATM   26  C   UNL     1      22.230  16.407  31.722  1.00  0.00    -0.043 A 
HETATM   27  C   UNL     1      21.224  16.213  32.669  1.00  0.00     0.009 A 
HETATM   28  C   UNL     1      21.928  16.109  30.288  1.00  0.00     0.049 C 
HETATM   29  C   UNL     1      21.472  16.481  34.015  1.00  0.00     0.017 A 
BRANCH  25  30
HETATM   30  C   UNL     1      24.532  17.076  31.170  1.00  0.00    -0.059 C 
HETATM   31  C   UNL     1      25.412  17.251  30.371  1.00  0.00    -0.040 C 
BRANCH  31  32
HETATM   32  C   UNL     1      26.460  17.458  29.420  1.00  0.00     0.131 A 
HETATM   33  N   UNL     1      27.217  18.592  29.279  1.00  0.00    -0.206 N 
HETATM   34  N   UNL     1      27.098  19.727  30.025  1.00  0.00    -0.177 NA
HETATM   35  C   UNL     1      28.108  18.361  28.246  1.00  0.00     0.151 A 
HETATM   36  C   UNL     1      27.940  20.650  29.680  1.00  0.00     0.139 A 
HETATM   37  C   UNL     1      28.953  20.556  28.601  1.00  0.00     0.025 A 
HETATM   38  C   UNL     1      29.001  19.408  27.917  1.00  0.00     0.054 A 
HETATM   39  N   UNL     1      27.950  17.154  27.740  1.00  0.00    -0.238 NA
HETATM   40  C   UNL     1      26.931  16.590  28.465  1.00  0.00     0.160 A 
ENDBRANCH  31  32
ENDBRANCH  25  30
ENDBRANCH   3  23
TORSDOF 7
