REMARK VINA RESULT:      -5.3      3.627      6.176
REMARK  7 active torsions:
REMARK  status: ('A' for Active; 'I' for Inactive)
REMARK    1  A    between atoms: N_5  and  C_15 
REMARK    2  A    between atoms: N_7  and  C_22 
REMARK       I    between atoms: N_7  and  C_24 
REMARK    3  A    between atoms: C_15  and  C_16 
REMARK    4  A    between atoms: C_18  and  C_23 
REMARK    5  A    between atoms: C_24  and  C_25 
REMARK    6  A    between atoms: C_28  and  C_32 
REMARK    7  A    between atoms: C_33  and  C_35 
ROOT
HETATM    1  O   UNL     1      25.831  18.706  36.931  1.00  0.00    -0.267 OA
HETATM    2  N   UNL     1      23.712  19.309  37.751  1.00  0.00    -0.323 N 
HETATM    3  C   UNL     1      24.608  18.637  36.908  1.00  0.00     0.256 C 
HETATM    4  H   UNL     1      22.719  19.122  37.640  1.00  0.00     0.169 HD
ENDROOT
BRANCH   2   5
HETATM    5  C   UNL     1      24.009  20.191  38.791  1.00  0.00     0.035 A 
HETATM    6  C   UNL     1      24.592  19.714  39.964  1.00  0.00     0.046 A 
HETATM    7  C   UNL     1      24.889  20.596  41.005  1.00  0.00     0.058 A 
HETATM    8  C   UNL     1      24.602  21.954  40.869  1.00  0.00    -0.015 A 
HETATM    9  C   UNL     1      24.020  22.431  39.695  1.00  0.00     0.012 A 
HETATM   10  C   UNL     1      23.722  21.549  38.656  1.00  0.00     0.030 A 
BRANCH   7  11
HETATM   11  C   UNL     1      25.515  20.063  42.251  1.00  0.00     0.418 C 
HETATM   12  F   UNL     1      25.914  18.762  42.149  1.00  0.00    -0.166 F 
HETATM   13  F   UNL     1      26.630  20.750  42.637  1.00  0.00    -0.166 F 
HETATM   14  F   UNL     1      24.669  20.105  43.321  1.00  0.00    -0.166 F 
ENDBRANCH   7  11
BRANCH   8  15
HETATM   15  C   UNL     1      24.914  22.926  41.977  1.00  0.00     0.311 C 
BRANCH  15  16
HETATM   16  N   UNL     1      23.859  23.924  42.138  1.00  0.00     0.096 N 
HETATM   17  C   UNL     1      24.430  25.266  42.296  1.00  0.00     0.303 C 
HETATM   18  C   UNL     1      23.323  26.314  42.467  1.00  0.00     0.302 C 
HETATM   19  N   UNL     1      22.465  25.984  43.611  1.00  0.00     0.087 N 
HETATM   20  C   UNL     1      21.895  24.641  43.455  1.00  0.00     0.302 C 
HETATM   21  C   UNL     1      21.409  26.982  43.771  1.00  0.00     0.310 C 
HETATM   22  C   UNL     1      23.001  23.594  43.283  1.00  0.00     0.303 C 
ENDBRANCH  15  16
ENDBRANCH   8  15
ENDBRANCH   2   5
BRANCH   3  23
HETATM   23  C   UNL     1      23.982  17.779  35.868  1.00  0.00     0.033 A 
HETATM   24  C   UNL     1      24.473  17.793  34.563  1.00  0.00     0.038 A 
HETATM   25  C   UNL     1      23.886  16.986  33.588  1.00  0.00     0.025 A 
HETATM   26  C   UNL     1      22.807  16.166  33.918  1.00  0.00    -0.043 A 
HETATM   27  C   UNL     1      22.316  16.152  35.224  1.00  0.00     0.009 A 
HETATM   28  C   UNL     1      22.153  15.288  32.900  1.00  0.00     0.049 C 
HETATM   29  C   UNL     1      22.903  16.959  36.199  1.00  0.00     0.017 A 
BRANCH  25  30
HETATM   30  C   UNL     1      24.407  17.019  32.255  1.00  0.00    -0.059 C 
HETATM   31  C   UNL     1      24.844  17.047  31.136  1.00  0.00    -0.040 C 
BRANCH  31  32
HETATM   32  C   UNL     1      25.365  17.080  29.805  1.00  0.00     0.131 A 
HETATM   33  N   UNL     1      24.657  17.340  28.662  1.00  0.00    -0.206 N 
HETATM   34  N   UNL     1      23.322  17.611  28.595  1.00  0.00    -0.177 NA
HETATM   35  C   UNL     1      25.548  17.271  27.606  1.00  0.00     0.151 A 
HETATM   36  C   UNL     1      22.908  17.819  27.385  1.00  0.00     0.139 A 
HETATM   37  C   UNL     1      23.734  17.782  26.155  1.00  0.00     0.025 A 
HETATM   38  C   UNL     1      25.034  17.507  26.309  1.00  0.00     0.054 A 
HETATM   39  N   UNL     1      26.765  16.986  28.025  1.00  0.00    -0.238 NA
HETATM   40  C   UNL     1      26.657  16.868  29.388  1.00  0.00     0.160 A 
ENDBRANCH  31  32
ENDBRANCH  25  30
ENDBRANCH   3  23
TORSDOF 7
