REMARK VINA RESULT:      -5.3      3.486     10.927
REMARK  7 active torsions:
REMARK  status: ('A' for Active; 'I' for Inactive)
REMARK    1  A    between atoms: N_5  and  C_15 
REMARK    2  A    between atoms: N_7  and  C_22 
REMARK       I    between atoms: N_7  and  C_24 
REMARK    3  A    between atoms: C_15  and  C_16 
REMARK    4  A    between atoms: C_18  and  C_23 
REMARK    5  A    between atoms: C_24  and  C_25 
REMARK    6  A    between atoms: C_28  and  C_32 
REMARK    7  A    between atoms: C_33  and  C_35 
ROOT
HETATM    1  O   UNL     1      27.223  16.104  28.631  1.00  0.00    -0.267 OA
HETATM    2  N   UNL     1      27.777  18.239  29.444  1.00  0.00    -0.323 N 
HETATM    3  C   UNL     1      26.963  17.110  29.281  1.00  0.00     0.256 C 
HETATM    4  H   UNL     1      27.444  18.985  30.048  1.00  0.00     0.169 HD
ENDROOT
BRANCH   2   5
HETATM    5  C   UNL     1      29.046  18.466  28.912  1.00  0.00     0.035 A 
HETATM    6  C   UNL     1      30.060  18.977  29.722  1.00  0.00     0.046 A 
HETATM    7  C   UNL     1      31.331  19.205  29.190  1.00  0.00     0.058 A 
HETATM    8  C   UNL     1      31.586  18.919  27.850  1.00  0.00    -0.015 A 
HETATM    9  C   UNL     1      30.572  18.407  27.040  1.00  0.00     0.012 A 
HETATM   10  C   UNL     1      29.302  18.180  27.572  1.00  0.00     0.030 A 
BRANCH   7  11
HETATM   11  C   UNL     1      32.401  19.751  30.077  1.00  0.00     0.418 C 
HETATM   12  F   UNL     1      33.133  20.748  29.498  1.00  0.00    -0.166 F 
HETATM   13  F   UNL     1      31.925  20.286  31.239  1.00  0.00    -0.166 F 
HETATM   14  F   UNL     1      33.305  18.801  30.452  1.00  0.00    -0.166 F 
ENDBRANCH   7  11
BRANCH   8  15
HETATM   15  C   UNL     1      32.949  19.154  27.253  1.00  0.00     0.311 C 
BRANCH  15  16
HETATM   16  N   UNL     1      33.875  18.068  27.567  1.00  0.00     0.096 N 
HETATM   17  C   UNL     1      35.241  18.578  27.731  1.00  0.00     0.303 C 
HETATM   18  C   UNL     1      36.213  17.439  28.058  1.00  0.00     0.302 C 
HETATM   19  N   UNL     1      36.174  16.404  27.018  1.00  0.00     0.087 N 
HETATM   20  C   UNL     1      34.808  15.895  26.852  1.00  0.00     0.302 C 
HETATM   21  C   UNL     1      37.099  15.317  27.332  1.00  0.00     0.310 C 
HETATM   22  C   UNL     1      33.836  17.034  26.525  1.00  0.00     0.303 C 
ENDBRANCH  15  16
ENDBRANCH   8  15
ENDBRANCH   2   5
BRANCH   3  23
HETATM   23  C   UNL     1      25.640  17.176  29.956  1.00  0.00     0.033 A 
HETATM   24  C   UNL     1      25.552  17.006  31.338  1.00  0.00     0.038 A 
HETATM   25  C   UNL     1      24.310  17.070  31.970  1.00  0.00     0.025 A 
HETATM   26  C   UNL     1      23.156  17.303  31.222  1.00  0.00    -0.043 A 
HETATM   27  C   UNL     1      23.245  17.473  29.840  1.00  0.00     0.009 A 
HETATM   28  C   UNL     1      21.809  17.377  31.865  1.00  0.00     0.049 C 
HETATM   29  C   UNL     1      24.487  17.410  29.207  1.00  0.00     0.017 A 
BRANCH  25  30
HETATM   30  C   UNL     1      24.245  16.891  33.389  1.00  0.00    -0.059 C 
HETATM   31  C   UNL     1      24.190  16.741  34.580  1.00  0.00    -0.040 C 
BRANCH  31  32
HETATM   32  C   UNL     1      24.124  16.562  35.997  1.00  0.00     0.131 A 
HETATM   33  N   UNL     1      24.756  17.326  36.943  1.00  0.00    -0.206 N 
HETATM   34  N   UNL     1      25.564  18.395  36.693  1.00  0.00    -0.177 NA
HETATM   35  C   UNL     1      24.419  16.805  38.179  1.00  0.00     0.151 A 
HETATM   36  C   UNL     1      26.033  18.938  37.773  1.00  0.00     0.139 A 
HETATM   37  C   UNL     1      25.766  18.500  39.164  1.00  0.00     0.025 A 
HETATM   38  C   UNL     1      24.963  17.442  39.320  1.00  0.00     0.054 A 
HETATM   39  N   UNL     1      23.616  15.766  38.057  1.00  0.00    -0.238 NA
HETATM   40  C   UNL     1      23.430  15.612  36.707  1.00  0.00     0.160 A 
ENDBRANCH  31  32
ENDBRANCH  25  30
ENDBRANCH   3  23
TORSDOF 7
