REMARK VINA RESULT:     -11.0      3.919     12.738
REMARK  7 active torsions:
REMARK  status: ('A' for Active; 'I' for Inactive)
REMARK    1  A    between atoms: N_5  and  C_15 
REMARK    2  A    between atoms: N_7  and  C_22 
REMARK       I    between atoms: N_7  and  C_24 
REMARK    3  A    between atoms: C_15  and  C_16 
REMARK    4  A    between atoms: C_18  and  C_23 
REMARK    5  A    between atoms: C_24  and  C_25 
REMARK    6  A    between atoms: C_28  and  C_32 
REMARK    7  A    between atoms: C_33  and  C_35 
ROOT
HETATM    1  O   UNL     1      33.184   8.336  45.020  1.00  0.00    -0.267 OA
HETATM    2  N   UNL     1      35.262   9.426  45.159  1.00  0.00    -0.323 N 
HETATM    3  C   UNL     1      34.157   8.723  45.657  1.00  0.00     0.256 C 
HETATM    4  H   UNL     1      36.018   9.647  45.801  1.00  0.00     0.169 HD
ENDROOT
BRANCH   2   5
HETATM    5  C   UNL     1      35.498   9.835  43.846  1.00  0.00     0.035 A 
HETATM    6  C   UNL     1      35.075   9.040  42.781  1.00  0.00     0.046 A 
HETATM    7  C   UNL     1      35.312   9.450  41.468  1.00  0.00     0.058 A 
HETATM    8  C   UNL     1      35.969  10.654  41.221  1.00  0.00    -0.015 A 
HETATM    9  C   UNL     1      36.392  11.450  42.287  1.00  0.00     0.012 A 
HETATM   10  C   UNL     1      36.156  11.040  43.599  1.00  0.00     0.030 A 
BRANCH   7  11
HETATM   11  C   UNL     1      34.848   8.583  40.343  1.00  0.00     0.418 C 
HETATM   12  F   UNL     1      33.961   9.200  39.508  1.00  0.00    -0.166 F 
HETATM   13  F   UNL     1      35.860   8.152  39.535  1.00  0.00    -0.166 F 
HETATM   14  F   UNL     1      34.219   7.454  40.778  1.00  0.00    -0.166 F 
ENDBRANCH   7  11
BRANCH   8  15
HETATM   15  C   UNL     1      36.235  11.118  39.813  1.00  0.00     0.311 C 
BRANCH  15  16
HETATM   16  N   UNL     1      36.407  12.568  39.742  1.00  0.00     0.096 N 
HETATM   17  C   UNL     1      35.281  13.193  39.039  1.00  0.00     0.303 C 
HETATM   18  C   UNL     1      35.462  14.714  38.962  1.00  0.00     0.302 C 
HETATM   19  N   UNL     1      36.729  15.056  38.305  1.00  0.00     0.087 N 
HETATM   20  C   UNL     1      37.856  14.429  39.005  1.00  0.00     0.302 C 
HETATM   21  C   UNL     1      36.902  16.505  38.234  1.00  0.00     0.310 C 
HETATM   22  C   UNL     1      37.674  12.909  39.083  1.00  0.00     0.303 C 
ENDBRANCH  15  16
ENDBRANCH   8  15
ENDBRANCH   2   5
BRANCH   3  23
HETATM   23  C   UNL     1      34.180   8.453  47.119  1.00  0.00     0.033 A 
HETATM   24  C   UNL     1      34.532   7.189  47.590  1.00  0.00     0.038 A 
HETATM   25  C   UNL     1      34.555   6.937  48.962  1.00  0.00     0.025 A 
HETATM   26  C   UNL     1      34.225   7.950  49.863  1.00  0.00    -0.043 A 
HETATM   27  C   UNL     1      33.873   9.215  49.391  1.00  0.00     0.009 A 
HETATM   28  C   UNL     1      34.238   7.717  51.340  1.00  0.00     0.049 C 
HETATM   29  C   UNL     1      33.851   9.466  48.019  1.00  0.00     0.017 A 
BRANCH  25  30
HETATM   30  C   UNL     1      34.918   5.631  49.422  1.00  0.00    -0.059 C 
HETATM   31  C   UNL     1      35.224   4.535  49.807  1.00  0.00    -0.040 C 
BRANCH  31  32
HETATM   32  C   UNL     1      35.587   3.230  50.267  1.00  0.00     0.131 A 
HETATM   33  N   UNL     1      36.730   2.545  49.948  1.00  0.00    -0.206 N 
HETATM   34  N   UNL     1      37.724   2.992  49.129  1.00  0.00    -0.177 NA
HETATM   35  C   UNL     1      36.675   1.331  50.608  1.00  0.00     0.151 A 
HETATM   36  C   UNL     1      38.693   2.141  48.999  1.00  0.00     0.139 A 
HETATM   37  C   UNL     1      38.782   0.806  49.637  1.00  0.00     0.025 A 
HETATM   38  C   UNL     1      37.763   0.445  50.425  1.00  0.00     0.054 A 
HETATM   39  N   UNL     1      35.569   1.222  51.317  1.00  0.00    -0.238 NA
HETATM   40  C   UNL     1      34.891   2.397  51.110  1.00  0.00     0.160 A 
ENDBRANCH  31  32
ENDBRANCH  25  30
ENDBRANCH   3  23
TORSDOF 7
