REMARK VINA RESULT:     -10.1      5.008      7.929
REMARK  7 active torsions:
REMARK  status: ('A' for Active; 'I' for Inactive)
REMARK    1  A    between atoms: N_5  and  C_15 
REMARK    2  A    between atoms: N_7  and  C_22 
REMARK       I    between atoms: N_7  and  C_24 
REMARK    3  A    between atoms: C_15  and  C_16 
REMARK    4  A    between atoms: C_18  and  C_23 
REMARK    5  A    between atoms: C_24  and  C_25 
REMARK    6  A    between atoms: C_28  and  C_32 
REMARK    7  A    between atoms: C_33  and  C_35 
ROOT
HETATM    1  O   UNL     1      35.030   5.590  51.986  1.00  0.00    -0.267 OA
HETATM    2  N   UNL     1      35.445   4.752  49.829  1.00  0.00    -0.323 N 
HETATM    3  C   UNL     1      35.006   5.698  50.765  1.00  0.00     0.256 C 
HETATM    4  H   UNL     1      35.401   4.998  48.844  1.00  0.00     0.169 HD
ENDROOT
BRANCH   2   5
HETATM    5  C   UNL     1      35.999   3.495  50.074  1.00  0.00     0.035 A 
HETATM    6  C   UNL     1      37.289   3.204  49.631  1.00  0.00     0.046 A 
HETATM    7  C   UNL     1      37.844   1.947  49.875  1.00  0.00     0.058 A 
HETATM    8  C   UNL     1      37.108   0.983  50.564  1.00  0.00    -0.015 A 
HETATM    9  C   UNL     1      35.818   1.274  51.008  1.00  0.00     0.012 A 
HETATM   10  C   UNL     1      35.264   2.531  50.762  1.00  0.00     0.030 A 
BRANCH   7  11
HETATM   11  C   UNL     1      39.227   1.658  49.393  1.00  0.00     0.418 C 
HETATM   12  F   UNL     1      39.940   0.848  50.231  1.00  0.00    -0.166 F 
HETATM   13  F   UNL     1      39.262   1.035  48.179  1.00  0.00    -0.166 F 
HETATM   14  F   UNL     1      39.977   2.788  49.248  1.00  0.00    -0.166 F 
ENDBRANCH   7  11
BRANCH   8  15
HETATM   15  C   UNL     1      37.685  -0.381  50.841  1.00  0.00     0.311 C 
BRANCH  15  16
HETATM   16  N   UNL     1      37.293  -0.880  52.157  1.00  0.00     0.096 N 
HETATM   17  C   UNL     1      38.149  -0.312  53.206  1.00  0.00     0.303 C 
HETATM   18  C   UNL     1      37.740  -0.837  54.588  1.00  0.00     0.302 C 
HETATM   19  N   UNL     1      37.788  -2.303  54.625  1.00  0.00     0.087 N 
HETATM   20  C   UNL     1      36.934  -2.871  53.575  1.00  0.00     0.302 C 
HETATM   21  C   UNL     1      37.395  -2.802  55.941  1.00  0.00     0.310 C 
HETATM   22  C   UNL     1      37.343  -2.346  52.194  1.00  0.00     0.303 C 
ENDBRANCH  15  16
ENDBRANCH   8  15
ENDBRANCH   2   5
BRANCH   3  23
HETATM   23  C   UNL     1      34.433   6.943  50.191  1.00  0.00     0.033 A 
HETATM   24  C   UNL     1      34.664   7.267  48.853  1.00  0.00     0.038 A 
HETATM   25  C   UNL     1      34.125   8.435  48.315  1.00  0.00     0.025 A 
HETATM   26  C   UNL     1      33.355   9.281  49.113  1.00  0.00    -0.043 A 
HETATM   27  C   UNL     1      33.124   8.957  50.450  1.00  0.00     0.009 A 
HETATM   28  C   UNL     1      32.761  10.541  48.570  1.00  0.00     0.049 C 
HETATM   29  C   UNL     1      33.663   7.789  50.989  1.00  0.00     0.017 A 
BRANCH  25  30
HETATM   30  C   UNL     1      34.377   8.746  46.940  1.00  0.00    -0.059 C 
HETATM   31  C   UNL     1      34.590   9.006  45.787  1.00  0.00    -0.040 C 
BRANCH  31  32
HETATM   32  C   UNL     1      34.842   9.316  44.414  1.00  0.00     0.131 A 
HETATM   33  N   UNL     1      34.601   8.500  43.340  1.00  0.00    -0.206 N 
HETATM   34  N   UNL     1      34.078   7.242  43.396  1.00  0.00    -0.177 NA
HETATM   35  C   UNL     1      34.989   9.193  42.207  1.00  0.00     0.151 A 
HETATM   36  C   UNL     1      33.955   6.693  42.228  1.00  0.00     0.139 A 
HETATM   37  C   UNL     1      34.322   7.301  40.928  1.00  0.00     0.025 A 
HETATM   38  C   UNL     1      34.830   8.538  40.962  1.00  0.00     0.054 A 
HETATM   39  N   UNL     1      35.454  10.387  42.513  1.00  0.00    -0.238 NA
HETATM   40  C   UNL     1      35.365  10.469  43.880  1.00  0.00     0.160 A 
ENDBRANCH  31  32
ENDBRANCH  25  30
ENDBRANCH   3  23
TORSDOF 7
