REMARK VINA RESULT:      -5.3      4.627     11.321
REMARK  7 active torsions:
REMARK  status: ('A' for Active; 'I' for Inactive)
REMARK    1  A    between atoms: N_5  and  C_15 
REMARK    2  A    between atoms: N_7  and  C_22 
REMARK       I    between atoms: N_7  and  C_24 
REMARK    3  A    between atoms: C_15  and  C_16 
REMARK    4  A    between atoms: C_18  and  C_23 
REMARK    5  A    between atoms: C_24  and  C_25 
REMARK    6  A    between atoms: C_28  and  C_32 
REMARK    7  A    between atoms: C_33  and  C_35 
ROOT
HETATM    1  O   UNL     1      27.009  16.218  29.001  1.00  0.00    -0.267 OA
HETATM    2  N   UNL     1      27.109  18.461  29.698  1.00  0.00    -0.323 N 
HETATM    3  C   UNL     1      26.596  17.157  29.672  1.00  0.00     0.256 C 
HETATM    4  H   UNL     1      26.686  19.129  30.338  1.00  0.00     0.169 HD
ENDROOT
BRANCH   2   5
HETATM    5  C   UNL     1      28.188  18.974  28.979  1.00  0.00     0.035 A 
HETATM    6  C   UNL     1      29.493  18.662  29.362  1.00  0.00     0.046 A 
HETATM    7  C   UNL     1      30.573  19.175  28.642  1.00  0.00     0.058 A 
HETATM    8  C   UNL     1      30.347  19.998  27.539  1.00  0.00    -0.015 A 
HETATM    9  C   UNL     1      29.043  20.309  27.156  1.00  0.00     0.012 A 
HETATM   10  C   UNL     1      27.963  19.797  27.876  1.00  0.00     0.030 A 
BRANCH   7  11
HETATM   11  C   UNL     1      31.961  18.826  29.069  1.00  0.00     0.418 C 
HETATM   12  F   UNL     1      32.664  18.131  28.127  1.00  0.00    -0.166 F 
HETATM   13  F   UNL     1      32.731  19.915  29.360  1.00  0.00    -0.166 F 
HETATM   14  F   UNL     1      31.983  18.050  30.190  1.00  0.00    -0.166 F 
ENDBRANCH   7  11
BRANCH   8  15
HETATM   15  C   UNL     1      31.497  20.563  26.746  1.00  0.00     0.311 C 
BRANCH  15  16
HETATM   16  N   UNL     1      31.392  22.013  26.594  1.00  0.00     0.096 N 
HETATM   17  C   UNL     1      32.157  22.471  25.428  1.00  0.00     0.303 C 
HETATM   18  C   UNL     1      32.049  23.993  25.269  1.00  0.00     0.302 C 
HETATM   19  N   UNL     1      32.506  24.678  26.484  1.00  0.00     0.087 N 
HETATM   20  C   UNL     1      31.743  24.218  27.650  1.00  0.00     0.302 C 
HETATM   21  C   UNL     1      32.400  26.128  26.333  1.00  0.00     0.310 C 
HETATM   22  C   UNL     1      31.850  22.697  27.809  1.00  0.00     0.303 C 
ENDBRANCH  15  16
ENDBRANCH   8  15
ENDBRANCH   2   5
BRANCH   3  23
HETATM   23  C   UNL     1      25.411  16.922  30.538  1.00  0.00     0.033 A 
HETATM   24  C   UNL     1      25.554  16.894  31.925  1.00  0.00     0.038 A 
HETATM   25  C   UNL     1      24.442  16.674  32.737  1.00  0.00     0.025 A 
HETATM   26  C   UNL     1      23.185  16.481  32.162  1.00  0.00    -0.043 A 
HETATM   27  C   UNL     1      23.042  16.508  30.775  1.00  0.00     0.009 A 
HETATM   28  C   UNL     1      21.971  16.242  33.001  1.00  0.00     0.049 C 
HETATM   29  C   UNL     1      24.155  16.728  29.963  1.00  0.00     0.017 A 
BRANCH  25  30
HETATM   30  C   UNL     1      24.614  16.649  34.158  1.00  0.00    -0.059 C 
HETATM   31  C   UNL     1      24.759  16.629  35.351  1.00  0.00    -0.040 C 
BRANCH  31  32
HETATM   32  C   UNL     1      24.930  16.604  36.770  1.00  0.00     0.131 A 
HETATM   33  N   UNL     1      24.383  15.696  37.638  1.00  0.00    -0.206 N 
HETATM   34  N   UNL     1      23.572  14.655  37.297  1.00  0.00    -0.177 NA
HETATM   35  C   UNL     1      24.807  16.041  38.909  1.00  0.00     0.151 A 
HETATM   36  C   UNL     1      23.194  13.951  38.318  1.00  0.00     0.139 A 
HETATM   37  C   UNL     1      23.561  14.190  39.733  1.00  0.00     0.025 A 
HETATM   38  C   UNL     1      24.360  15.234  39.982  1.00  0.00     0.054 A 
HETATM   39  N   UNL     1      25.584  17.105  38.881  1.00  0.00    -0.238 NA
HETATM   40  C   UNL     1      25.665  17.458  37.557  1.00  0.00     0.160 A 
ENDBRANCH  31  32
ENDBRANCH  25  30
ENDBRANCH   3  23
TORSDOF 7
