REMARK VINA RESULT:      -5.3      4.227      6.350
REMARK  7 active torsions:
REMARK  status: ('A' for Active; 'I' for Inactive)
REMARK    1  A    between atoms: N_5  and  C_15 
REMARK    2  A    between atoms: N_7  and  C_22 
REMARK       I    between atoms: N_7  and  C_24 
REMARK    3  A    between atoms: C_15  and  C_16 
REMARK    4  A    between atoms: C_18  and  C_23 
REMARK    5  A    between atoms: C_24  and  C_25 
REMARK    6  A    between atoms: C_28  and  C_32 
REMARK    7  A    between atoms: C_33  and  C_35 
ROOT
HETATM    1  O   UNL     1      22.936  22.492  37.107  1.00  0.00    -0.267 OA
HETATM    2  N   UNL     1      24.747  21.011  36.868  1.00  0.00    -0.323 N 
HETATM    3  C   UNL     1      23.934  22.097  36.514  1.00  0.00     0.256 C 
HETATM    4  H   UNL     1      25.570  20.825  36.302  1.00  0.00     0.169 HD
ENDROOT
BRANCH   2   5
HETATM    5  C   UNL     1      24.604  20.151  37.957  1.00  0.00     0.035 A 
HETATM    6  C   UNL     1      25.148  20.497  39.194  1.00  0.00     0.046 A 
HETATM    7  C   UNL     1      25.006  19.636  40.284  1.00  0.00     0.058 A 
HETATM    8  C   UNL     1      24.319  18.432  40.136  1.00  0.00    -0.015 A 
HETATM    9  C   UNL     1      23.774  18.087  38.899  1.00  0.00     0.012 A 
HETATM   10  C   UNL     1      23.918  18.947  37.810  1.00  0.00     0.030 A 
BRANCH   7  11
HETATM   11  C   UNL     1      25.594  20.028  41.599  1.00  0.00     0.418 C 
HETATM   12  F   UNL     1      24.677  20.100  42.608  1.00  0.00    -0.166 F 
HETATM   13  F   UNL     1      26.551  19.163  42.047  1.00  0.00    -0.166 F 
HETATM   14  F   UNL     1      26.195  21.252  41.560  1.00  0.00    -0.166 F 
ENDBRANCH   7  11
BRANCH   8  15
HETATM   15  C   UNL     1      24.151  17.488  41.297  1.00  0.00     0.311 C 
BRANCH  15  16
HETATM   16  N   UNL     1      23.454  16.264  40.906  1.00  0.00     0.096 N 
HETATM   17  C   UNL     1      22.241  16.075  41.711  1.00  0.00     0.303 C 
HETATM   18  C   UNL     1      21.510  14.790  41.303  1.00  0.00     0.302 C 
HETATM   19  N   UNL     1      22.395  13.625  41.426  1.00  0.00     0.087 N 
HETATM   20  C   UNL     1      23.608  13.814  40.624  1.00  0.00     0.302 C 
HETATM   21  C   UNL     1      21.698  12.401  41.034  1.00  0.00     0.310 C 
HETATM   22  C   UNL     1      24.338  15.099  41.031  1.00  0.00     0.303 C 
ENDBRANCH  15  16
ENDBRANCH   8  15
ENDBRANCH   2   5
BRANCH   3  23
HETATM   23  C   UNL     1      24.331  22.811  35.273  1.00  0.00     0.033 A 
HETATM   24  C   UNL     1      24.614  22.091  34.113  1.00  0.00     0.038 A 
HETATM   25  C   UNL     1      24.985  22.762  32.948  1.00  0.00     0.025 A 
HETATM   26  C   UNL     1      25.074  24.154  32.943  1.00  0.00    -0.043 A 
HETATM   27  C   UNL     1      24.791  24.875  34.103  1.00  0.00     0.009 A 
HETATM   28  C   UNL     1      25.468  24.908  31.713  1.00  0.00     0.049 C 
HETATM   29  C   UNL     1      24.420  24.203  35.268  1.00  0.00     0.017 A 
BRANCH  25  30
HETATM   30  C   UNL     1      25.272  22.001  31.770  1.00  0.00    -0.059 C 
HETATM   31  C   UNL     1      25.512  21.362  30.781  1.00  0.00    -0.040 C 
BRANCH  31  32
HETATM   32  C   UNL     1      25.799  20.601  29.605  1.00  0.00     0.131 A 
HETATM   33  N   UNL     1      25.898  19.237  29.524  1.00  0.00    -0.206 N 
HETATM   34  N   UNL     1      25.742  18.364  30.559  1.00  0.00    -0.177 NA
HETATM   35  C   UNL     1      26.186  18.927  28.206  1.00  0.00     0.151 A 
HETATM   36  C   UNL     1      25.889  17.126  30.203  1.00  0.00     0.139 A 
HETATM   37  C   UNL     1      26.196  16.634  28.839  1.00  0.00     0.025 A 
HETATM   38  C   UNL     1      26.336  17.558  27.882  1.00  0.00     0.054 A 
HETATM   39  N   UNL     1      26.270  20.015  27.467  1.00  0.00    -0.238 NA
HETATM   40  C   UNL     1      26.030  21.056  28.329  1.00  0.00     0.160 A 
ENDBRANCH  31  32
ENDBRANCH  25  30
ENDBRANCH   3  23
TORSDOF 7
