REMARK VINA RESULT:     -10.1      4.199      7.504
REMARK  7 active torsions:
REMARK  status: ('A' for Active; 'I' for Inactive)
REMARK    1  A    between atoms: N_5  and  C_15 
REMARK    2  A    between atoms: N_7  and  C_22 
REMARK       I    between atoms: N_7  and  C_24 
REMARK    3  A    between atoms: C_15  and  C_16 
REMARK    4  A    between atoms: C_18  and  C_23 
REMARK    5  A    between atoms: C_24  and  C_25 
REMARK    6  A    between atoms: C_28  and  C_32 
REMARK    7  A    between atoms: C_33  and  C_35 
ROOT
HETATM    1  O   UNL     1      34.689   4.688  50.383  1.00  0.00    -0.267 OA
HETATM    2  N   UNL     1      34.614   5.824  52.440  1.00  0.00    -0.323 N 
HETATM    3  C   UNL     1      34.513   5.703  51.047  1.00  0.00     0.256 C 
HETATM    4  H   UNL     1      34.399   6.725  52.858  1.00  0.00     0.169 HD
ENDROOT
BRANCH   2   5
HETATM    5  C   UNL     1      34.932   4.832  53.367  1.00  0.00     0.035 A 
HETATM    6  C   UNL     1      33.998   4.455  54.333  1.00  0.00     0.046 A 
HETATM    7  C   UNL     1      34.316   3.462  55.261  1.00  0.00     0.058 A 
HETATM    8  C   UNL     1      35.566   2.846  55.221  1.00  0.00    -0.015 A 
HETATM    9  C   UNL     1      36.499   3.222  54.255  1.00  0.00     0.012 A 
HETATM   10  C   UNL     1      36.182   4.215  53.328  1.00  0.00     0.030 A 
BRANCH   7  11
HETATM   11  C   UNL     1      33.301   3.074  56.285  1.00  0.00     0.418 C 
HETATM   12  F   UNL     1      32.656   1.905  55.999  1.00  0.00    -0.166 F 
HETATM   13  F   UNL     1      33.825   2.898  57.533  1.00  0.00    -0.166 F 
HETATM   14  F   UNL     1      32.318   4.010  56.428  1.00  0.00    -0.166 F 
ENDBRANCH   7  11
BRANCH   8  15
HETATM   15  C   UNL     1      35.932   1.771  56.211  1.00  0.00     0.311 C 
BRANCH  15  16
HETATM   16  N   UNL     1      37.306   1.307  56.026  1.00  0.00     0.096 N 
HETATM   17  C   UNL     1      37.327  -0.040  55.445  1.00  0.00     0.303 C 
HETATM   18  C   UNL     1      38.768  -0.529  55.253  1.00  0.00     0.302 C 
HETATM   19  N   UNL     1      39.501  -0.507  56.525  1.00  0.00     0.087 N 
HETATM   20  C   UNL     1      39.478   0.839  57.108  1.00  0.00     0.302 C 
HETATM   21  C   UNL     1      40.874  -0.971  56.340  1.00  0.00     0.310 C 
HETATM   22  C   UNL     1      38.037   1.328  57.299  1.00  0.00     0.303 C 
ENDBRANCH  15  16
ENDBRANCH   8  15
ENDBRANCH   2   5
BRANCH   3  23
HETATM   23  C   UNL     1      34.181   6.957  50.322  1.00  0.00     0.033 A 
HETATM   24  C   UNL     1      34.349   7.029  48.939  1.00  0.00     0.038 A 
HETATM   25  C   UNL     1      34.037   8.206  48.258  1.00  0.00     0.025 A 
HETATM   26  C   UNL     1      33.556   9.311  48.960  1.00  0.00    -0.043 A 
HETATM   27  C   UNL     1      33.388   9.239  50.343  1.00  0.00     0.009 A 
HETATM   28  C   UNL     1      33.211  10.589  48.264  1.00  0.00     0.049 C 
HETATM   29  C   UNL     1      33.700   8.062  51.023  1.00  0.00     0.017 A 
BRANCH  25  30
HETATM   30  C   UNL     1      34.219   8.255  46.839  1.00  0.00    -0.059 C 
HETATM   31  C   UNL     1      34.373   8.296  45.648  1.00  0.00    -0.040 C 
BRANCH  31  32
HETATM   32  C   UNL     1      34.555   8.345  44.231  1.00  0.00     0.131 A 
HETATM   33  N   UNL     1      35.408   9.173  43.549  1.00  0.00    -0.206 N 
HETATM   34  N   UNL     1      36.234  10.102  44.109  1.00  0.00    -0.177 NA
HETATM   35  C   UNL     1      35.265   8.886  42.203  1.00  0.00     0.151 A 
HETATM   36  C   UNL     1      36.934  10.751  43.232  1.00  0.00     0.139 A 
HETATM   37  C   UNL     1      36.897  10.560  41.763  1.00  0.00     0.025 A 
HETATM   38  C   UNL     1      36.058   9.629  41.296  1.00  0.00     0.054 A 
HETATM   39  N   UNL     1      34.378   7.931  42.010  1.00  0.00    -0.238 NA
HETATM   40  C   UNL     1      33.935   7.591  43.263  1.00  0.00     0.160 A 
ENDBRANCH  31  32
ENDBRANCH  25  30
ENDBRANCH   3  23
TORSDOF 7
