REMARK VINA RESULT:     -12.5      0.000      0.000
REMARK  7 active torsions:
REMARK  status: ('A' for Active; 'I' for Inactive)
REMARK    1  A    between atoms: N_5  and  C_15 
REMARK    2  A    between atoms: N_7  and  C_22 
REMARK       I    between atoms: N_7  and  C_24 
REMARK    3  A    between atoms: C_15  and  C_16 
REMARK    4  A    between atoms: C_18  and  C_23 
REMARK    5  A    between atoms: C_24  and  C_25 
REMARK    6  A    between atoms: C_28  and  C_32 
REMARK    7  A    between atoms: C_33  and  C_35 
ROOT
HETATM    1  O   UNL     1      35.119  10.170  45.687  1.00  0.00    -0.267 OA
HETATM    2  N   UNL     1      34.286   7.979  45.867  1.00  0.00    -0.323 N 
HETATM    3  C   UNL     1      34.743   9.116  45.187  1.00  0.00     0.256 C 
HETATM    4  H   UNL     1      34.044   7.158  45.318  1.00  0.00     0.169 HD
ENDROOT
BRANCH   2   5
HETATM    5  C   UNL     1      34.161   7.795  47.244  1.00  0.00     0.035 A 
HETATM    6  C   UNL     1      34.005   8.897  48.084  1.00  0.00     0.046 A 
HETATM    7  C   UNL     1      33.880   8.713  49.462  1.00  0.00     0.058 A 
HETATM    8  C   UNL     1      33.910   7.427  49.998  1.00  0.00    -0.015 A 
HETATM    9  C   UNL     1      34.066   6.324  49.159  1.00  0.00     0.012 A 
HETATM   10  C   UNL     1      34.192   6.508  47.781  1.00  0.00     0.030 A 
BRANCH   7  11
HETATM   11  C   UNL     1      33.711   9.908  50.341  1.00  0.00     0.418 C 
HETATM   12  F   UNL     1      32.592   9.858  51.122  1.00  0.00    -0.166 F 
HETATM   13  F   UNL     1      34.746  10.095  51.211  1.00  0.00    -0.166 F 
HETATM   14  F   UNL     1      33.612  11.070  49.632  1.00  0.00    -0.166 F 
ENDBRANCH   7  11
BRANCH   8  15
HETATM   15  C   UNL     1      33.776   7.202  51.482  1.00  0.00     0.311 C 
BRANCH  15  16
HETATM   16  N   UNL     1      34.878   6.402  52.012  1.00  0.00     0.096 N 
HETATM   17  C   UNL     1      34.441   5.615  53.171  1.00  0.00     0.303 C 
HETATM   18  C   UNL     1      35.598   4.778  53.730  1.00  0.00     0.302 C 
HETATM   19  N   UNL     1      36.735   5.633  54.091  1.00  0.00     0.087 N 
HETATM   20  C   UNL     1      37.171   6.422  52.933  1.00  0.00     0.302 C 
HETATM   21  C   UNL     1      37.837   4.833  54.621  1.00  0.00     0.310 C 
HETATM   22  C   UNL     1      36.015   7.258  52.374  1.00  0.00     0.303 C 
ENDBRANCH  15  16
ENDBRANCH   8  15
ENDBRANCH   2   5
BRANCH   3  23
HETATM   23  C   UNL     1      34.735   9.016  43.704  1.00  0.00     0.033 A 
HETATM   24  C   UNL     1      34.898  10.163  42.926  1.00  0.00     0.038 A 
HETATM   25  C   UNL     1      34.891  10.069  41.535  1.00  0.00     0.025 A 
HETATM   26  C   UNL     1      34.723   8.828  40.920  1.00  0.00    -0.043 A 
HETATM   27  C   UNL     1      34.560   7.681  41.698  1.00  0.00     0.009 A 
HETATM   28  C   UNL     1      34.711   8.689  39.431  1.00  0.00     0.049 C 
HETATM   29  C   UNL     1      34.567   7.776  43.089  1.00  0.00     0.017 A 
BRANCH  25  30
HETATM   30  C   UNL     1      35.058  11.260  40.758  1.00  0.00    -0.059 C 
HETATM   31  C   UNL     1      35.199  12.260  40.107  1.00  0.00    -0.040 C 
BRANCH  31  32
HETATM   32  C   UNL     1      35.367  13.449  39.332  1.00  0.00     0.131 A 
HETATM   33  N   UNL     1      36.557  14.029  38.979  1.00  0.00    -0.206 N 
HETATM   34  N   UNL     1      37.797  13.569  39.313  1.00  0.00    -0.177 NA
HETATM   35  C   UNL     1      36.258  15.154  38.233  1.00  0.00     0.151 A 
HETATM   36  C   UNL     1      38.753  14.310  38.849  1.00  0.00     0.139 A 
HETATM   37  C   UNL     1      38.597  15.540  38.037  1.00  0.00     0.025 A 
HETATM   38  C   UNL     1      37.346  15.923  37.755  1.00  0.00     0.054 A 
HETATM   39  N   UNL     1      34.955  15.307  38.101  1.00  0.00    -0.238 NA
HETATM   40  C   UNL     1      34.398  14.253  38.779  1.00  0.00     0.160 A 
ENDBRANCH  31  32
ENDBRANCH  25  30
ENDBRANCH   3  23
TORSDOF 7
