REMARK VINA RESULT:      -5.8      2.769      4.164
REMARK  7 active torsions:
REMARK  status: ('A' for Active; 'I' for Inactive)
REMARK    1  A    between atoms: N_5  and  C_15 
REMARK    2  A    between atoms: N_7  and  C_22 
REMARK       I    between atoms: N_7  and  C_24 
REMARK    3  A    between atoms: C_15  and  C_16 
REMARK    4  A    between atoms: C_18  and  C_23 
REMARK    5  A    between atoms: C_24  and  C_25 
REMARK    6  A    between atoms: C_28  and  C_32 
REMARK    7  A    between atoms: C_33  and  C_35 
ROOT
HETATM    1  O   UNL     1      25.845  16.210  35.771  1.00  0.00    -0.267 OA
HETATM    2  N   UNL     1      23.970  17.425  36.500  1.00  0.00    -0.323 N 
HETATM    3  C   UNL     1      24.748  16.718  35.573  1.00  0.00     0.256 C 
HETATM    4  H   UNL     1      23.056  17.757  36.203  1.00  0.00     0.169 HD
ENDROOT
BRANCH   2   5
HETATM    5  C   UNL     1      24.266  17.704  37.834  1.00  0.00     0.035 A 
HETATM    6  C   UNL     1      23.796  16.863  38.843  1.00  0.00     0.046 A 
HETATM    7  C   UNL     1      24.092  17.141  40.178  1.00  0.00     0.058 A 
HETATM    8  C   UNL     1      24.858  18.260  40.503  1.00  0.00    -0.015 A 
HETATM    9  C   UNL     1      25.329  19.101  39.494  1.00  0.00     0.012 A 
HETATM   10  C   UNL     1      25.032  18.823  38.160  1.00  0.00     0.030 A 
BRANCH   7  11
HETATM   11  C   UNL     1      23.580  16.226  41.241  1.00  0.00     0.418 C 
HETATM   12  F   UNL     1      22.772  15.234  40.764  1.00  0.00    -0.166 F 
HETATM   13  F   UNL     1      24.569  15.583  41.928  1.00  0.00    -0.166 F 
HETATM   14  F   UNL     1      22.842  16.880  42.184  1.00  0.00    -0.166 F 
ENDBRANCH   7  11
BRANCH   8  15
HETATM   15  C   UNL     1      25.192  18.581  41.936  1.00  0.00     0.311 C 
BRANCH  15  16
HETATM   16  N   UNL     1      24.671  19.887  42.336  1.00  0.00     0.096 N 
HETATM   17  C   UNL     1      23.328  20.104  41.786  1.00  0.00     0.303 C 
HETATM   18  C   UNL     1      22.782  21.475  42.203  1.00  0.00     0.302 C 
HETATM   19  N   UNL     1      23.688  22.549  41.780  1.00  0.00     0.087 N 
HETATM   20  C   UNL     1      25.032  22.331  42.327  1.00  0.00     0.302 C 
HETATM   21  C   UNL     1      23.168  23.854  42.180  1.00  0.00     0.310 C 
HETATM   22  C   UNL     1      25.578  20.961  41.911  1.00  0.00     0.303 C 
ENDBRANCH  15  16
ENDBRANCH   8  15
ENDBRANCH   2   5
BRANCH   3  23
HETATM   23  C   UNL     1      24.170  16.609  34.208  1.00  0.00     0.033 A 
HETATM   24  C   UNL     1      24.971  16.842  33.090  1.00  0.00     0.038 A 
HETATM   25  C   UNL     1      24.429  16.739  31.809  1.00  0.00     0.025 A 
HETATM   26  C   UNL     1      23.085  16.403  31.645  1.00  0.00    -0.043 A 
HETATM   27  C   UNL     1      22.284  16.169  32.764  1.00  0.00     0.009 A 
HETATM   28  C   UNL     1      22.469  16.283  30.288  1.00  0.00     0.049 C 
HETATM   29  C   UNL     1      22.826  16.273  34.044  1.00  0.00     0.017 A 
BRANCH  25  30
HETATM   30  C   UNL     1      25.271  16.985  30.678  1.00  0.00    -0.059 C 
HETATM   31  C   UNL     1      25.978  17.190  29.728  1.00  0.00    -0.040 C 
BRANCH  31  32
HETATM   32  C   UNL     1      26.818  17.435  28.598  1.00  0.00     0.131 A 
HETATM   33  N   UNL     1      27.356  16.489  27.765  1.00  0.00    -0.206 N 
HETATM   34  N   UNL     1      27.182  15.141  27.873  1.00  0.00    -0.177 NA
HETATM   35  C   UNL     1      28.098  17.160  26.810  1.00  0.00     0.151 A 
HETATM   36  C   UNL     1      27.804  14.475  26.952  1.00  0.00     0.139 A 
HETATM   37  C   UNL     1      28.634  15.045  25.865  1.00  0.00     0.025 A 
HETATM   38  C   UNL     1      28.754  16.377  25.832  1.00  0.00     0.054 A 
HETATM   39  N   UNL     1      28.053  18.464  27.000  1.00  0.00    -0.238 NA
HETATM   40  C   UNL     1      27.260  18.640  28.106  1.00  0.00     0.160 A 
ENDBRANCH  31  32
ENDBRANCH  25  30
ENDBRANCH   3  23
TORSDOF 7
