REMARK VINA RESULT:      -6.0      2.714      4.460
REMARK  7 active torsions:
REMARK  status: ('A' for Active; 'I' for Inactive)
REMARK    1  A    between atoms: N_5  and  C_15 
REMARK    2  A    between atoms: N_7  and  C_22 
REMARK       I    between atoms: N_7  and  C_24 
REMARK    3  A    between atoms: C_15  and  C_16 
REMARK    4  A    between atoms: C_18  and  C_23 
REMARK    5  A    between atoms: C_24  and  C_25 
REMARK    6  A    between atoms: C_28  and  C_32 
REMARK    7  A    between atoms: C_33  and  C_35 
ROOT
HETATM    1  O   UNL     1      24.577  16.082  36.486  1.00  0.00    -0.267 OA
HETATM    2  N   UNL     1      23.270  18.036  36.531  1.00  0.00    -0.323 N 
HETATM    3  C   UNL     1      23.830  16.892  35.947  1.00  0.00     0.256 C 
HETATM    4  H   UNL     1      22.633  18.596  35.971  1.00  0.00     0.169 HD
ENDROOT
BRANCH   2   5
HETATM    5  C   UNL     1      23.434  18.502  37.835  1.00  0.00     0.035 A 
HETATM    6  C   UNL     1      24.711  18.792  38.317  1.00  0.00     0.046 A 
HETATM    7  C   UNL     1      24.875  19.258  39.622  1.00  0.00     0.058 A 
HETATM    8  C   UNL     1      23.763  19.436  40.444  1.00  0.00    -0.015 A 
HETATM    9  C   UNL     1      22.486  19.147  39.962  1.00  0.00     0.012 A 
HETATM   10  C   UNL     1      22.322  18.680  38.658  1.00  0.00     0.030 A 
BRANCH   7  11
HETATM   11  C   UNL     1      26.251  19.564  40.116  1.00  0.00     0.418 C 
HETATM   12  F   UNL     1      26.559  20.894  40.088  1.00  0.00    -0.166 F 
HETATM   13  F   UNL     1      26.466  19.173  41.406  1.00  0.00    -0.166 F 
HETATM   14  F   UNL     1      27.220  18.947  39.379  1.00  0.00    -0.166 F 
ENDBRANCH   7  11
BRANCH   8  15
HETATM   15  C   UNL     1      23.914  19.939  41.856  1.00  0.00     0.311 C 
BRANCH  15  16
HETATM   16  N   UNL     1      23.496  21.334  41.983  1.00  0.00     0.096 N 
HETATM   17  C   UNL     1      24.594  22.162  42.495  1.00  0.00     0.303 C 
HETATM   18  C   UNL     1      24.156  23.626  42.631  1.00  0.00     0.302 C 
HETATM   19  N   UNL     1      22.980  23.739  43.502  1.00  0.00     0.087 N 
HETATM   20  C   UNL     1      21.882  22.909  42.992  1.00  0.00     0.302 C 
HETATM   21  C   UNL     1      22.561  25.133  43.629  1.00  0.00     0.310 C 
HETATM   22  C   UNL     1      22.321  21.447  42.855  1.00  0.00     0.303 C 
ENDBRANCH  15  16
ENDBRANCH   8  15
ENDBRANCH   2   5
BRANCH   3  23
HETATM   23  C   UNL     1      23.487  16.674  34.518  1.00  0.00     0.033 A 
HETATM   24  C   UNL     1      24.407  17.002  33.521  1.00  0.00     0.038 A 
HETATM   25  C   UNL     1      24.085  16.796  32.179  1.00  0.00     0.025 A 
HETATM   26  C   UNL     1      22.843  16.262  31.834  1.00  0.00    -0.043 A 
HETATM   27  C   UNL     1      21.924  15.934  32.830  1.00  0.00     0.009 A 
HETATM   28  C   UNL     1      22.464  16.028  30.407  1.00  0.00     0.049 C 
HETATM   29  C   UNL     1      22.246  16.140  34.172  1.00  0.00     0.017 A 
BRANCH  25  30
HETATM   30  C   UNL     1      25.044  17.143  31.175  1.00  0.00    -0.059 C 
HETATM   31  C   UNL     1      25.850  17.434  30.333  1.00  0.00    -0.040 C 
BRANCH  31  32
HETATM   32  C   UNL     1      26.809  17.780  29.330  1.00  0.00     0.131 A 
HETATM   33  N   UNL     1      27.257  16.969  28.321  1.00  0.00    -0.206 N 
HETATM   34  N   UNL     1      26.865  15.682  28.099  1.00  0.00    -0.177 NA
HETATM   35  C   UNL     1      28.172  17.701  27.586  1.00  0.00     0.151 A 
HETATM   36  C   UNL     1      27.449  15.145  27.074  1.00  0.00     0.139 A 
HETATM   37  C   UNL     1      28.445  15.795  26.190  1.00  0.00     0.025 A 
HETATM   38  C   UNL     1      28.775  17.058  26.479  1.00  0.00     0.054 A 
HETATM   39  N   UNL     1      28.317  18.916  28.077  1.00  0.00    -0.238 NA
HETATM   40  C   UNL     1      27.474  18.970  29.158  1.00  0.00     0.160 A 
ENDBRANCH  31  32
ENDBRANCH  25  30
ENDBRANCH   3  23
TORSDOF 7
