REMARK VINA RESULT:      -5.9      2.176      3.119
REMARK  7 active torsions:
REMARK  status: ('A' for Active; 'I' for Inactive)
REMARK    1  A    between atoms: N_5  and  C_15 
REMARK    2  A    between atoms: N_7  and  C_22 
REMARK       I    between atoms: N_7  and  C_24 
REMARK    3  A    between atoms: C_15  and  C_16 
REMARK    4  A    between atoms: C_18  and  C_23 
REMARK    5  A    between atoms: C_24  and  C_25 
REMARK    6  A    between atoms: C_28  and  C_32 
REMARK    7  A    between atoms: C_33  and  C_35 
ROOT
HETATM    1  O   UNL     1      24.562  17.095  34.795  1.00  0.00    -0.267 OA
HETATM    2  N   UNL     1      22.408  16.372  35.396  1.00  0.00    -0.323 N 
HETATM    3  C   UNL     1      23.427  16.733  34.505  1.00  0.00     0.256 C 
HETATM    4  H   UNL     1      21.524  16.052  35.008  1.00  0.00     0.169 HD
ENDROOT
BRANCH   2   5
HETATM    5  C   UNL     1      22.455  16.344  36.790  1.00  0.00     0.035 A 
HETATM    6  C   UNL     1      23.184  15.349  37.443  1.00  0.00     0.046 A 
HETATM    7  C   UNL     1      23.232  15.321  38.837  1.00  0.00     0.058 A 
HETATM    8  C   UNL     1      22.552  16.287  39.577  1.00  0.00    -0.015 A 
HETATM    9  C   UNL     1      21.824  17.282  38.925  1.00  0.00     0.012 A 
HETATM   10  C   UNL     1      21.776  17.310  37.531  1.00  0.00     0.030 A 
BRANCH   7  11
HETATM   11  C   UNL     1      24.020  14.248  39.514  1.00  0.00     0.418 C 
HETATM   12  F   UNL     1      24.795  13.517  38.660  1.00  0.00    -0.166 F 
HETATM   13  F   UNL     1      24.880  14.720  40.463  1.00  0.00    -0.166 F 
HETATM   14  F   UNL     1      23.226  13.342  40.156  1.00  0.00    -0.166 F 
ENDBRANCH   7  11
BRANCH   8  15
HETATM   15  C   UNL     1      22.590  16.278  41.084  1.00  0.00     0.311 C 
BRANCH  15  16
HETATM   16  N   UNL     1      23.121  17.529  41.622  1.00  0.00     0.096 N 
HETATM   17  C   UNL     1      24.253  18.004  40.817  1.00  0.00     0.303 C 
HETATM   18  C   UNL     1      24.812  19.315  41.382  1.00  0.00     0.302 C 
HETATM   19  N   UNL     1      25.214  19.150  42.784  1.00  0.00     0.087 N 
HETATM   20  C   UNL     1      24.083  18.673  43.589  1.00  0.00     0.302 C 
HETATM   21  C   UNL     1      25.744  20.401  43.322  1.00  0.00     0.310 C 
HETATM   22  C   UNL     1      23.524  17.363  43.023  1.00  0.00     0.303 C 
ENDBRANCH  15  16
ENDBRANCH   8  15
ENDBRANCH   2   5
BRANCH   3  23
HETATM   23  C   UNL     1      23.060  16.688  33.066  1.00  0.00     0.033 A 
HETATM   24  C   UNL     1      24.041  16.864  32.089  1.00  0.00     0.038 A 
HETATM   25  C   UNL     1      23.696  16.820  30.739  1.00  0.00     0.025 A 
HETATM   26  C   UNL     1      22.371  16.602  30.363  1.00  0.00    -0.043 A 
HETATM   27  C   UNL     1      21.390  16.426  31.340  1.00  0.00     0.009 A 
HETATM   28  C   UNL     1      21.964  16.549  28.925  1.00  0.00     0.049 C 
HETATM   29  C   UNL     1      21.735  16.470  32.691  1.00  0.00     0.017 A 
BRANCH  25  30
HETATM   30  C   UNL     1      24.720  17.004  29.755  1.00  0.00    -0.059 C 
HETATM   31  C   UNL     1      25.580  17.160  28.930  1.00  0.00    -0.040 C 
BRANCH  31  32
HETATM   32  C   UNL     1      26.603  17.344  27.949  1.00  0.00     0.131 A 
HETATM   33  N   UNL     1      27.354  16.359  27.363  1.00  0.00    -0.206 N 
HETATM   34  N   UNL     1      27.256  15.024  27.619  1.00  0.00    -0.177 NA
HETATM   35  C   UNL     1      28.218  16.978  26.477  1.00  0.00     0.151 A 
HETATM   36  C   UNL     1      28.088  14.313  26.925  1.00  0.00     0.139 A 
HETATM   37  C   UNL     1      29.071  14.823  25.940  1.00  0.00     0.025 A 
HETATM   38  C   UNL     1      29.102  16.147  25.749  1.00  0.00     0.054 A 
HETATM   39  N   UNL     1      28.047  18.285  26.477  1.00  0.00    -0.238 NA
HETATM   40  C   UNL     1      27.047  18.517  27.387  1.00  0.00     0.160 A 
ENDBRANCH  31  32
ENDBRANCH  25  30
ENDBRANCH   3  23
TORSDOF 7
