REMARK VINA RESULT:      -5.9      2.607      3.764
REMARK  7 active torsions:
REMARK  status: ('A' for Active; 'I' for Inactive)
REMARK    1  A    between atoms: N_5  and  C_15 
REMARK    2  A    between atoms: N_7  and  C_22 
REMARK       I    between atoms: N_7  and  C_24 
REMARK    3  A    between atoms: C_15  and  C_16 
REMARK    4  A    between atoms: C_18  and  C_23 
REMARK    5  A    between atoms: C_24  and  C_25 
REMARK    6  A    between atoms: C_28  and  C_32 
REMARK    7  A    between atoms: C_33  and  C_35 
ROOT
HETATM    1  O   UNL     1      24.734  16.886  35.256  1.00  0.00    -0.267 OA
HETATM    2  N   UNL     1      22.566  16.212  35.865  1.00  0.00    -0.323 N 
HETATM    3  C   UNL     1      23.591  16.548  34.970  1.00  0.00     0.256 C 
HETATM    4  H   UNL     1      21.675  15.911  35.480  1.00  0.00     0.169 HD
ENDROOT
BRANCH   2   5
HETATM    5  C   UNL     1      22.617  16.184  37.258  1.00  0.00     0.035 A 
HETATM    6  C   UNL     1      23.305  15.161  37.911  1.00  0.00     0.046 A 
HETATM    7  C   UNL     1      23.357  15.134  39.306  1.00  0.00     0.058 A 
HETATM    8  C   UNL     1      22.721  16.130  40.046  1.00  0.00    -0.015 A 
HETATM    9  C   UNL     1      22.034  17.154  39.393  1.00  0.00     0.012 A 
HETATM   10  C   UNL     1      21.982  17.180  37.999  1.00  0.00     0.030 A 
BRANCH   7  11
HETATM   11  C   UNL     1      24.100  14.030  39.983  1.00  0.00     0.418 C 
HETATM   12  F   UNL     1      24.988  14.466  40.924  1.00  0.00    -0.166 F 
HETATM   13  F   UNL     1      23.289  13.148  40.637  1.00  0.00    -0.166 F 
HETATM   14  F   UNL     1      24.831  13.279  39.109  1.00  0.00    -0.166 F 
ENDBRANCH   7  11
BRANCH   8  15
HETATM   15  C   UNL     1      22.763  16.123  41.552  1.00  0.00     0.311 C 
BRANCH  15  16
HETATM   16  N   UNL     1      23.739  17.078  42.073  1.00  0.00     0.096 N 
HETATM   17  C   UNL     1      23.114  17.988  43.039  1.00  0.00     0.303 C 
HETATM   18  C   UNL     1      24.137  18.992  43.584  1.00  0.00     0.302 C 
HETATM   19  N   UNL     1      24.757  19.752  42.492  1.00  0.00     0.087 N 
HETATM   20  C   UNL     1      25.381  18.842  41.524  1.00  0.00     0.302 C 
HETATM   21  C   UNL     1      25.733  20.706  43.013  1.00  0.00     0.310 C 
HETATM   22  C   UNL     1      24.358  17.838  40.980  1.00  0.00     0.303 C 
ENDBRANCH  15  16
ENDBRANCH   8  15
ENDBRANCH   2   5
BRANCH   3  23
HETATM   23  C   UNL     1      23.219  16.509  33.532  1.00  0.00     0.033 A 
HETATM   24  C   UNL     1      24.187  16.738  32.554  1.00  0.00     0.038 A 
HETATM   25  C   UNL     1      23.838  16.700  31.204  1.00  0.00     0.025 A 
HETATM   26  C   UNL     1      22.520  16.433  30.831  1.00  0.00    -0.043 A 
HETATM   27  C   UNL     1      21.552  16.205  31.810  1.00  0.00     0.009 A 
HETATM   28  C   UNL     1      22.109  16.385  29.395  1.00  0.00     0.049 C 
HETATM   29  C   UNL     1      21.902  16.243  33.159  1.00  0.00     0.017 A 
BRANCH  25  30
HETATM   30  C   UNL     1      24.849  16.939  30.219  1.00  0.00    -0.059 C 
HETATM   31  C   UNL     1      25.697  17.139  29.392  1.00  0.00    -0.040 C 
BRANCH  31  32
HETATM   32  C   UNL     1      26.706  17.379  28.408  1.00  0.00     0.131 A 
HETATM   33  N   UNL     1      27.341  16.432  27.648  1.00  0.00    -0.206 N 
HETATM   34  N   UNL     1      27.119  15.088  27.701  1.00  0.00    -0.177 NA
HETATM   35  C   UNL     1      28.237  17.098  26.831  1.00  0.00     0.151 A 
HETATM   36  C   UNL     1      27.858  14.420  26.872  1.00  0.00     0.139 A 
HETATM   37  C   UNL     1      28.859  14.985  25.936  1.00  0.00     0.025 A 
HETATM   38  C   UNL     1      29.016  16.313  25.948  1.00  0.00     0.054 A 
HETATM   39  N   UNL     1      28.196  18.400  27.039  1.00  0.00    -0.238 NA
HETATM   40  C   UNL     1      27.248  18.579  28.014  1.00  0.00     0.160 A 
ENDBRANCH  31  32
ENDBRANCH  25  30
ENDBRANCH   3  23
TORSDOF 7
