REMARK VINA RESULT:      -5.3      7.874     11.272
REMARK  7 active torsions:
REMARK  status: ('A' for Active; 'I' for Inactive)
REMARK    1  A    between atoms: N_5  and  C_15 
REMARK    2  A    between atoms: N_7  and  C_22 
REMARK       I    between atoms: N_7  and  C_24 
REMARK    3  A    between atoms: C_15  and  C_16 
REMARK    4  A    between atoms: C_18  and  C_23 
REMARK    5  A    between atoms: C_24  and  C_25 
REMARK    6  A    between atoms: C_28  and  C_32 
REMARK    7  A    between atoms: C_33  and  C_35 
ROOT
HETATM    1  O   UNL     1      31.917  19.377  31.353  1.00  0.00    -0.267 OA
HETATM    2  N   UNL     1      31.251  20.117  29.223  1.00  0.00    -0.323 N 
HETATM    3  C   UNL     1      32.155  19.907  30.273  1.00  0.00     0.256 C 
HETATM    4  H   UNL     1      31.602  20.535  28.366  1.00  0.00     0.169 HD
ENDROOT
BRANCH   2   5
HETATM    5  C   UNL     1      29.900  19.775  29.172  1.00  0.00     0.035 A 
HETATM    6  C   UNL     1      29.477  18.724  28.358  1.00  0.00     0.046 A 
HETATM    7  C   UNL     1      28.125  18.381  28.306  1.00  0.00     0.058 A 
HETATM    8  C   UNL     1      27.198  19.088  29.070  1.00  0.00    -0.015 A 
HETATM    9  C   UNL     1      27.620  20.138  29.886  1.00  0.00     0.012 A 
HETATM   10  C   UNL     1      28.972  20.481  29.936  1.00  0.00     0.030 A 
BRANCH   7  11
HETATM   11  C   UNL     1      27.696  17.252  27.428  1.00  0.00     0.418 C 
HETATM   12  F   UNL     1      28.717  16.699  26.711  1.00  0.00    -0.166 F 
HETATM   13  F   UNL     1      27.135  16.213  28.113  1.00  0.00    -0.166 F 
HETATM   14  F   UNL     1      26.763  17.631  26.507  1.00  0.00    -0.166 F 
ENDBRANCH   7  11
BRANCH   8  15
HETATM   15  C   UNL     1      25.733  18.736  29.033  1.00  0.00     0.311 C 
BRANCH  15  16
HETATM   16  N   UNL     1      25.231  18.359  30.353  1.00  0.00     0.096 N 
HETATM   17  C   UNL     1      25.760  17.051  30.758  1.00  0.00     0.303 C 
HETATM   18  C   UNL     1      25.232  16.653  32.141  1.00  0.00     0.302 C 
HETATM   19  N   UNL     1      23.764  16.639  32.155  1.00  0.00     0.087 N 
HETATM   20  C   UNL     1      23.234  17.945  31.748  1.00  0.00     0.302 C 
HETATM   21  C   UNL     1      23.262  16.262  33.475  1.00  0.00     0.310 C 
HETATM   22  C   UNL     1      23.763  18.343  30.365  1.00  0.00     0.303 C 
ENDBRANCH  15  16
ENDBRANCH   8  15
ENDBRANCH   2   5
BRANCH   3  23
HETATM   23  C   UNL     1      33.533  20.412  30.038  1.00  0.00     0.033 A 
HETATM   24  C   UNL     1      34.447  20.465  31.090  1.00  0.00     0.038 A 
HETATM   25  C   UNL     1      35.740  20.938  30.868  1.00  0.00     0.025 A 
HETATM   26  C   UNL     1      36.120  21.358  29.594  1.00  0.00    -0.043 A 
HETATM   27  C   UNL     1      35.206  21.304  28.541  1.00  0.00     0.009 A 
HETATM   28  C   UNL     1      37.497  21.871  29.318  1.00  0.00     0.049 C 
HETATM   29  C   UNL     1      33.913  20.831  28.763  1.00  0.00     0.017 A 
BRANCH  25  30
HETATM   30  C   UNL     1      36.659  20.985  31.965  1.00  0.00    -0.059 C 
HETATM   31  C   UNL     1      37.431  21.024  32.885  1.00  0.00    -0.040 C 
BRANCH  31  32
HETATM   32  C   UNL     1      38.348  21.071  33.980  1.00  0.00     0.131 A 
HETATM   33  N   UNL     1      38.918  19.996  34.610  1.00  0.00    -0.206 N 
HETATM   34  N   UNL     1      38.704  18.685  34.299  1.00  0.00    -0.177 NA
HETATM   35  C   UNL     1      39.738  20.494  35.607  1.00  0.00     0.151 A 
HETATM   36  C   UNL     1      39.371  17.871  35.056  1.00  0.00     0.139 A 
HETATM   37  C   UNL     1      40.286  18.247  36.160  1.00  0.00     0.025 A 
HETATM   38  C   UNL     1      40.438  19.554  36.399  1.00  0.00     0.054 A 
HETATM   39  N   UNL     1      39.711  21.812  35.633  1.00  0.00    -0.238 NA
HETATM   40  C   UNL     1      38.852  22.175  34.626  1.00  0.00     0.160 A 
ENDBRANCH  31  32
ENDBRANCH  25  30
ENDBRANCH   3  23
TORSDOF 7
