REMARK VINA RESULT:      -5.8      2.786      4.016
REMARK  7 active torsions:
REMARK  status: ('A' for Active; 'I' for Inactive)
REMARK    1  A    between atoms: N_5  and  C_15 
REMARK    2  A    between atoms: N_7  and  C_22 
REMARK       I    between atoms: N_7  and  C_24 
REMARK    3  A    between atoms: C_15  and  C_16 
REMARK    4  A    between atoms: C_18  and  C_23 
REMARK    5  A    between atoms: C_24  and  C_25 
REMARK    6  A    between atoms: C_28  and  C_32 
REMARK    7  A    between atoms: C_33  and  C_35 
ROOT
HETATM    1  O   UNL     1      23.320  16.261  35.817  1.00  0.00    -0.267 OA
HETATM    2  N   UNL     1      24.306  18.316  35.242  1.00  0.00    -0.323 N 
HETATM    3  C   UNL     1      23.620  17.119  34.995  1.00  0.00     0.256 C 
HETATM    4  H   UNL     1      24.450  18.954  34.464  1.00  0.00     0.169 HD
ENDROOT
BRANCH   2   5
HETATM    5  C   UNL     1      24.792  18.792  36.460  1.00  0.00     0.035 A 
HETATM    6  C   UNL     1      24.137  19.837  37.111  1.00  0.00     0.046 A 
HETATM    7  C   UNL     1      24.623  20.314  38.330  1.00  0.00     0.058 A 
HETATM    8  C   UNL     1      25.762  19.743  38.896  1.00  0.00    -0.015 A 
HETATM    9  C   UNL     1      26.416  18.696  38.246  1.00  0.00     0.012 A 
HETATM   10  C   UNL     1      25.931  18.221  37.027  1.00  0.00     0.030 A 
BRANCH   7  11
HETATM   11  C   UNL     1      23.906  21.433  39.010  1.00  0.00     0.418 C 
HETATM   12  F   UNL     1      24.741  22.352  39.578  1.00  0.00    -0.166 F 
HETATM   13  F   UNL     1      23.100  22.151  38.174  1.00  0.00    -0.166 F 
HETATM   14  F   UNL     1      23.096  20.999  40.018  1.00  0.00    -0.166 F 
ENDBRANCH   7  11
BRANCH   8  15
HETATM   15  C   UNL     1      26.305  20.238  40.211  1.00  0.00     0.311 C 
BRANCH  15  16
HETATM   16  N   UNL     1      25.868  19.404  41.329  1.00  0.00     0.096 N 
HETATM   17  C   UNL     1      24.859  18.433  40.891  1.00  0.00     0.303 C 
HETATM   18  C   UNL     1      24.398  17.559  42.064  1.00  0.00     0.302 C 
HETATM   19  N   UNL     1      23.872  18.386  43.156  1.00  0.00     0.087 N 
HETATM   20  C   UNL     1      24.880  19.359  43.593  1.00  0.00     0.302 C 
HETATM   21  C   UNL     1      23.436  17.552  44.275  1.00  0.00     0.310 C 
HETATM   22  C   UNL     1      25.341  20.233  42.421  1.00  0.00     0.303 C 
ENDBRANCH  15  16
ENDBRANCH   8  15
ENDBRANCH   2   5
BRANCH   3  23
HETATM   23  C   UNL     1      23.252  16.877  33.576  1.00  0.00     0.033 A 
HETATM   24  C   UNL     1      24.195  17.074  32.567  1.00  0.00     0.038 A 
HETATM   25  C   UNL     1      23.850  16.845  31.235  1.00  0.00     0.025 A 
HETATM   26  C   UNL     1      22.561  16.420  30.911  1.00  0.00    -0.043 A 
HETATM   27  C   UNL     1      21.618  16.223  31.920  1.00  0.00     0.009 A 
HETATM   28  C   UNL     1      22.155  16.165  29.495  1.00  0.00     0.049 C 
HETATM   29  C   UNL     1      21.964  16.452  33.252  1.00  0.00     0.017 A 
BRANCH  25  30
HETATM   30  C   UNL     1      24.835  17.055  30.217  1.00  0.00    -0.059 C 
HETATM   31  C   UNL     1      25.661  17.232  29.363  1.00  0.00    -0.040 C 
BRANCH  31  32
HETATM   32  C   UNL     1      26.645  17.442  28.348  1.00  0.00     0.131 A 
HETATM   33  N   UNL     1      27.288  16.471  27.625  1.00  0.00    -0.206 N 
HETATM   34  N   UNL     1      27.100  15.127  27.754  1.00  0.00    -0.177 NA
HETATM   35  C   UNL     1      28.152  17.113  26.757  1.00  0.00     0.151 A 
HETATM   36  C   UNL     1      27.838  14.433  26.946  1.00  0.00     0.139 A 
HETATM   37  C   UNL     1      28.807  14.970  25.961  1.00  0.00     0.025 A 
HETATM   38  C   UNL     1      28.931  16.300  25.900  1.00  0.00     0.054 A 
HETATM   39  N   UNL     1      28.083  18.422  26.896  1.00  0.00    -0.238 NA
HETATM   40  C   UNL     1      27.150  18.632  27.880  1.00  0.00     0.160 A 
ENDBRANCH  31  32
ENDBRANCH  25  30
ENDBRANCH   3  23
TORSDOF 7
