REMARK VINA RESULT:      -9.2      3.135      3.605
REMARK  5 active torsions:
REMARK  status: ('A' for Active; 'I' for Inactive)
REMARK    1  A    between atoms: S_1  and  C_11 
REMARK    2  A    between atoms: S_1  and  C_14 
REMARK       I    between atoms: N_5  and  C_21 
REMARK    3  A    between atoms: C_9  and  C_15 
REMARK    4  A    between atoms: C_16  and  C_21 
REMARK    5  A    between atoms: C_18  and  C_23 
ROOT
HETATM    1  N   UNL     1      35.264  15.371  38.384  1.00  0.00    -0.277 N 
HETATM    2  N   UNL     1      34.680  14.273  38.894  1.00  0.00    -0.174 NA
HETATM    3  C   UNL     1      36.960  14.066  38.865  1.00  0.00     0.022 A 
HETATM    4  C   UNL     1      36.631  15.310  38.339  1.00  0.00     0.064 A 
HETATM    5  C   UNL     1      35.715  13.481  39.186  1.00  0.00     0.089 A 
HETATM    6  C   UNL     1      37.587  16.224  37.890  1.00  0.00     0.051 A 
HETATM    7  C   UNL     1      38.927  15.839  37.989  1.00  0.00     0.007 A 
HETATM    8  C   UNL     1      38.311  13.693  38.958  1.00  0.00     0.017 A 
HETATM    9  C   UNL     1      39.286  14.595  38.513  1.00  0.00     0.020 A 
HETATM   10  H   UNL     1      34.669  16.132  38.082  1.00  0.00     0.189 HD
ENDROOT
BRANCH   7  11
HETATM   11  S   UNL     1      40.202  16.959  37.433  1.00  0.00    -0.089 SA
BRANCH  11  12
HETATM   12  C   UNL     1      41.605  16.382  38.377  1.00  0.00     0.021 A 
HETATM   13  C   UNL     1      42.903  16.400  37.861  1.00  0.00     0.049 A 
HETATM   14  C   UNL     1      43.969  15.940  38.633  1.00  0.00     0.018 A 
HETATM   15  C   UNL     1      43.741  15.460  39.922  1.00  0.00     0.001 A 
HETATM   16  C   UNL     1      42.446  15.441  40.441  1.00  0.00     0.001 A 
HETATM   17  C   UNL     1      41.380  15.901  39.668  1.00  0.00     0.020 A 
BRANCH  13  18
HETATM   18  C   UNL     1      43.199  16.891  36.520  1.00  0.00     0.252 C 
HETATM   19  O   UNL     1      43.495  18.083  36.339  1.00  0.00    -0.268 OA
HETATM   20  N   UNL     1      43.153  15.957  35.481  1.00  0.00    -0.361 N 
HETATM   21  C   UNL     1      43.444  16.283  34.103  1.00  0.00     0.149 C 
HETATM   22  H   UNL     1      42.939  14.989  35.703  1.00  0.00     0.162 HD
ENDBRANCH  13  18
ENDBRANCH  11  12
ENDBRANCH   7  11
BRANCH   5  23
HETATM   23  C   UNL     1      35.561  12.191  39.758  1.00  0.00     0.036 C 
HETATM   24  C   UNL     1      34.826  11.843  40.847  1.00  0.00     0.034 C 
BRANCH  24  25
HETATM   25  C   UNL     1      34.716  10.481  41.400  1.00  0.00     0.056 A 
HETATM   26  N   UNL     1      34.737   9.491  40.492  1.00  0.00    -0.261 NA
HETATM   27  C   UNL     1      34.636   8.239  40.990  1.00  0.00     0.117 A 
HETATM   28  C   UNL     1      34.516   7.949  42.340  1.00  0.00     0.019 A 
HETATM   29  C   UNL     1      34.500   9.012  43.236  1.00  0.00     0.004 A 
HETATM   30  C   UNL     1      34.601  10.315  42.760  1.00  0.00     0.031 A 
ENDBRANCH  24  25
ENDBRANCH   5  23
TORSDOF 5
