REMARK VINA RESULT:      -8.0      2.445      3.739
REMARK  5 active torsions:
REMARK  status: ('A' for Active; 'I' for Inactive)
REMARK    1  A    between atoms: S_1  and  C_11 
REMARK    2  A    between atoms: S_1  and  C_14 
REMARK       I    between atoms: N_5  and  C_21 
REMARK    3  A    between atoms: C_9  and  C_15 
REMARK    4  A    between atoms: C_16  and  C_21 
REMARK    5  A    between atoms: C_18  and  C_23 
ROOT
HETATM    1  N   UNL     1      41.528  15.667  37.973  1.00  0.00    -0.277 N 
HETATM    2  N   UNL     1      40.631  14.944  38.665  1.00  0.00    -0.174 NA
HETATM    3  C   UNL     1      39.598  16.383  37.215  1.00  0.00     0.022 A 
HETATM    4  C   UNL     1      40.972  16.550  37.085  1.00  0.00     0.064 A 
HETATM    5  C   UNL     1      39.458  15.383  38.201  1.00  0.00     0.089 A 
HETATM    6  C   UNL     1      41.548  17.461  36.197  1.00  0.00     0.051 A 
HETATM    7  C   UNL     1      40.675  18.226  35.418  1.00  0.00     0.007 A 
HETATM    8  C   UNL     1      38.733  17.159  36.425  1.00  0.00     0.017 A 
HETATM    9  C   UNL     1      39.291  18.079  35.528  1.00  0.00     0.020 A 
HETATM   10  H   UNL     1      42.511  15.510  38.154  1.00  0.00     0.189 HD
ENDROOT
BRANCH   7  11
HETATM   11  S   UNL     1      41.345  19.411  34.262  1.00  0.00    -0.089 SA
BRANCH  11  12
HETATM   12  C   UNL     1      40.626  20.930  34.870  1.00  0.00     0.021 A 
HETATM   13  C   UNL     1      41.175  21.629  35.947  1.00  0.00     0.049 A 
HETATM   14  C   UNL     1      40.580  22.811  36.389  1.00  0.00     0.018 A 
HETATM   15  C   UNL     1      39.437  23.297  35.755  1.00  0.00     0.001 A 
HETATM   16  C   UNL     1      38.887  22.600  34.679  1.00  0.00     0.001 A 
HETATM   17  C   UNL     1      39.481  21.418  34.237  1.00  0.00     0.020 A 
BRANCH  13  18
HETATM   18  C   UNL     1      42.368  21.168  36.646  1.00  0.00     0.252 C 
HETATM   19  O   UNL     1      42.267  20.497  37.685  1.00  0.00    -0.268 OA
HETATM   20  N   UNL     1      43.601  21.498  36.076  1.00  0.00    -0.361 N 
HETATM   21  C   UNL     1      44.871  21.094  36.635  1.00  0.00     0.149 C 
HETATM   22  H   UNL     1      43.613  22.018  35.203  1.00  0.00     0.162 HD
ENDBRANCH  13  18
ENDBRANCH  11  12
ENDBRANCH   7  11
BRANCH   5  23
HETATM   23  C   UNL     1      38.212  14.884  38.663  1.00  0.00     0.036 C 
HETATM   24  C   UNL     1      37.896  13.603  38.992  1.00  0.00     0.034 C 
BRANCH  24  25
HETATM   25  C   UNL     1      36.574  13.145  39.456  1.00  0.00     0.056 A 
HETATM   26  N   UNL     1      35.529  13.860  39.003  1.00  0.00    -0.261 NA
HETATM   27  C   UNL     1      34.313  13.448  39.424  1.00  0.00     0.117 A 
HETATM   28  C   UNL     1      34.109  12.365  40.267  1.00  0.00     0.019 A 
HETATM   29  C   UNL     1      35.226  11.662  40.704  1.00  0.00     0.004 A 
HETATM   30  C   UNL     1      36.494  12.057  40.292  1.00  0.00     0.031 A 
ENDBRANCH  24  25
ENDBRANCH   5  23
TORSDOF 5
