REMARK VINA RESULT:      -8.8      7.706      9.368
REMARK  5 active torsions:
REMARK  status: ('A' for Active; 'I' for Inactive)
REMARK    1  A    between atoms: S_1  and  C_11 
REMARK    2  A    between atoms: S_1  and  C_14 
REMARK       I    between atoms: N_5  and  C_21 
REMARK    3  A    between atoms: C_9  and  C_15 
REMARK    4  A    between atoms: C_16  and  C_21 
REMARK    5  A    between atoms: C_18  and  C_23 
ROOT
HETATM    1  N   UNL     1      44.447  16.193  38.793  1.00  0.00    -0.277 N 
HETATM    2  N   UNL     1      43.176  16.502  38.487  1.00  0.00    -0.174 NA
HETATM    3  C   UNL     1      43.273  14.860  40.079  1.00  0.00     0.022 A 
HETATM    4  C   UNL     1      44.574  15.213  39.742  1.00  0.00     0.064 A 
HETATM    5  C   UNL     1      42.464  15.689  39.272  1.00  0.00     0.089 A 
HETATM    6  C   UNL     1      45.699  14.622  40.322  1.00  0.00     0.051 A 
HETATM    7  C   UNL     1      45.470  13.631  41.281  1.00  0.00     0.007 A 
HETATM    8  C   UNL     1      43.059  13.862  41.046  1.00  0.00     0.017 A 
HETATM    9  C   UNL     1      44.174  13.256  41.639  1.00  0.00     0.020 A 
HETATM   10  H   UNL     1      45.188  16.689  38.315  1.00  0.00     0.189 HD
ENDROOT
BRANCH   7  11
HETATM   11  S   UNL     1      46.864  12.833  42.062  1.00  0.00    -0.089 SA
BRANCH  11  12
HETATM   12  C   UNL     1      47.632  14.215  42.895  1.00  0.00     0.021 A 
HETATM   13  C   UNL     1      48.959  14.578  42.655  1.00  0.00     0.049 A 
HETATM   14  C   UNL     1      49.519  15.665  43.327  1.00  0.00     0.018 A 
HETATM   15  C   UNL     1      48.754  16.390  44.240  1.00  0.00     0.001 A 
HETATM   16  C   UNL     1      47.428  16.029  44.482  1.00  0.00     0.001 A 
HETATM   17  C   UNL     1      46.869  14.942  43.810  1.00  0.00     0.020 A 
BRANCH  13  18
HETATM   18  C   UNL     1      49.805  13.856  41.711  1.00  0.00     0.252 C 
HETATM   19  O   UNL     1      49.902  14.241  40.535  1.00  0.00    -0.268 OA
HETATM   20  N   UNL     1      50.499  12.748  42.205  1.00  0.00    -0.361 N 
HETATM   21  C   UNL     1      51.393  11.945  41.401  1.00  0.00     0.149 C 
HETATM   22  H   UNL     1      50.404  12.509  43.188  1.00  0.00     0.162 HD
ENDBRANCH  13  18
ENDBRANCH  11  12
ENDBRANCH   7  11
BRANCH   5  23
HETATM   23  C   UNL     1      41.045  15.674  39.280  1.00  0.00     0.036 C 
HETATM   24  C   UNL     1      40.214  14.843  38.596  1.00  0.00     0.034 C 
BRANCH  24  25
HETATM   25  C   UNL     1      38.741  14.888  38.638  1.00  0.00     0.056 A 
HETATM   26  N   UNL     1      38.196  16.076  38.327  1.00  0.00    -0.261 NA
HETATM   27  C   UNL     1      36.846  16.127  38.364  1.00  0.00     0.117 A 
HETATM   28  C   UNL     1      36.038  15.050  38.695  1.00  0.00     0.019 A 
HETATM   29  C   UNL     1      36.656  13.844  39.007  1.00  0.00     0.004 A 
HETATM   30  C   UNL     1      38.043  13.754  38.980  1.00  0.00     0.031 A 
ENDBRANCH  24  25
ENDBRANCH   5  23
TORSDOF 5
