REMARK VINA RESULT:      -8.4      5.853      8.085
REMARK  5 active torsions:
REMARK  status: ('A' for Active; 'I' for Inactive)
REMARK    1  A    between atoms: S_1  and  C_11 
REMARK    2  A    between atoms: S_1  and  C_14 
REMARK       I    between atoms: N_5  and  C_21 
REMARK    3  A    between atoms: C_9  and  C_15 
REMARK    4  A    between atoms: C_16  and  C_21 
REMARK    5  A    between atoms: C_18  and  C_23 
ROOT
HETATM    1  N   UNL     1      42.591  17.260  36.448  1.00  0.00    -0.277 N 
HETATM    2  N   UNL     1      41.262  17.127  36.303  1.00  0.00    -0.174 NA
HETATM    3  C   UNL     1      42.001  16.080  38.200  1.00  0.00     0.022 A 
HETATM    4  C   UNL     1      43.097  16.654  37.567  1.00  0.00     0.064 A 
HETATM    5  C   UNL     1      40.906  16.408  37.371  1.00  0.00     0.089 A 
HETATM    6  C   UNL     1      44.398  16.564  38.067  1.00  0.00     0.051 A 
HETATM    7  C   UNL     1      44.572  15.857  39.260  1.00  0.00     0.007 A 
HETATM    8  C   UNL     1      42.191  15.373  39.400  1.00  0.00     0.017 A 
HETATM    9  C   UNL     1      43.488  15.271  39.917  1.00  0.00     0.020 A 
HETATM   10  H   UNL     1      43.099  17.779  35.743  1.00  0.00     0.189 HD
ENDROOT
BRANCH   7  11
HETATM   11  S   UNL     1      46.210  15.703  39.955  1.00  0.00    -0.089 SA
BRANCH  11  12
HETATM   12  C   UNL     1      46.336  13.931  40.151  1.00  0.00     0.021 A 
HETATM   13  C   UNL     1      46.241  13.317  41.402  1.00  0.00     0.049 A 
HETATM   14  C   UNL     1      46.345  11.930  41.509  1.00  0.00     0.018 A 
HETATM   15  C   UNL     1      46.546  11.155  40.367  1.00  0.00     0.001 A 
HETATM   16  C   UNL     1      46.642  11.766  39.117  1.00  0.00     0.001 A 
HETATM   17  C   UNL     1      46.537  13.153  39.010  1.00  0.00     0.020 A 
BRANCH  13  18
HETATM   18  C   UNL     1      46.031  14.078  42.628  1.00  0.00     0.252 C 
HETATM   19  O   UNL     1      44.884  14.261  43.064  1.00  0.00    -0.268 OA
HETATM   20  N   UNL     1      47.173  14.554  43.277  1.00  0.00    -0.361 N 
HETATM   21  C   UNL     1      47.132  15.303  44.514  1.00  0.00     0.149 C 
HETATM   22  H   UNL     1      48.086  14.337  42.887  1.00  0.00     0.162 HD
ENDBRANCH  13  18
ENDBRANCH  11  12
ENDBRANCH   7  11
BRANCH   5  23
HETATM   23  C   UNL     1      39.564  16.025  37.629  1.00  0.00     0.036 C 
HETATM   24  C   UNL     1      39.121  15.026  38.438  1.00  0.00     0.034 C 
BRANCH  24  25
HETATM   25  C   UNL     1      37.708  14.669  38.655  1.00  0.00     0.056 A 
HETATM   26  N   UNL     1      36.821  15.633  38.354  1.00  0.00    -0.261 NA
HETATM   27  C   UNL     1      35.522  15.315  38.550  1.00  0.00     0.117 A 
HETATM   28  C   UNL     1      35.088  14.088  39.030  1.00  0.00     0.019 A 
HETATM   29  C   UNL     1      36.049  13.128  39.325  1.00  0.00     0.004 A 
HETATM   30  C   UNL     1      37.395  13.419  39.136  1.00  0.00     0.031 A 
ENDBRANCH  24  25
ENDBRANCH   5  23
TORSDOF 5
