REMARK VINA RESULT:      -8.7     10.795     16.802
REMARK  5 active torsions:
REMARK  status: ('A' for Active; 'I' for Inactive)
REMARK    1  A    between atoms: S_1  and  C_11 
REMARK    2  A    between atoms: S_1  and  C_14 
REMARK       I    between atoms: N_5  and  C_21 
REMARK    3  A    between atoms: C_9  and  C_15 
REMARK    4  A    between atoms: C_16  and  C_21 
REMARK    5  A    between atoms: C_18  and  C_23 
ROOT
HETATM    1  N   UNL     1      33.819   9.244  49.467  1.00  0.00    -0.277 N 
HETATM    2  N   UNL     1      33.604   9.534  48.172  1.00  0.00    -0.174 NA
HETATM    3  C   UNL     1      34.937   7.687  48.401  1.00  0.00     0.022 A 
HETATM    4  C   UNL     1      34.612   8.147  49.672  1.00  0.00     0.064 A 
HETATM    5  C   UNL     1      34.286   8.584  47.527  1.00  0.00     0.089 A 
HETATM    6  C   UNL     1      35.061   7.531  50.843  1.00  0.00     0.051 A 
HETATM    7  C   UNL     1      35.873   6.403  50.694  1.00  0.00     0.007 A 
HETATM    8  C   UNL     1      35.754   6.552  48.268  1.00  0.00     0.017 A 
HETATM    9  C   UNL     1      36.215   5.920  49.430  1.00  0.00     0.020 A 
HETATM   10  H   UNL     1      33.394   9.840  50.166  1.00  0.00     0.189 HD
ENDROOT
BRANCH   7  11
HETATM   11  S   UNL     1      36.483   5.567  52.150  1.00  0.00    -0.089 SA
BRANCH  11  12
HETATM   12  C   UNL     1      36.383   3.859  51.635  1.00  0.00     0.021 A 
HETATM   13  C   UNL     1      37.517   3.127  51.275  1.00  0.00     0.049 A 
HETATM   14  C   UNL     1      37.392   1.796  50.879  1.00  0.00     0.018 A 
HETATM   15  C   UNL     1      36.136   1.193  50.840  1.00  0.00     0.001 A 
HETATM   16  C   UNL     1      35.001   1.922  51.198  1.00  0.00     0.001 A 
HETATM   17  C   UNL     1      35.125   3.254  51.595  1.00  0.00     0.020 A 
BRANCH  13  18
HETATM   18  C   UNL     1      38.855   3.707  51.298  1.00  0.00     0.252 C 
HETATM   19  O   UNL     1      39.488   3.783  52.362  1.00  0.00    -0.268 OA
HETATM   20  N   UNL     1      39.377   4.136  50.075  1.00  0.00    -0.361 N 
HETATM   21  C   UNL     1      40.697   4.709  49.929  1.00  0.00     0.149 C 
HETATM   22  H   UNL     1      38.821   4.011  49.233  1.00  0.00     0.162 HD
ENDBRANCH  13  18
ENDBRANCH  11  12
ENDBRANCH   7  11
BRANCH   5  23
HETATM   23  C   UNL     1      34.338   8.501  46.111  1.00  0.00     0.036 C 
HETATM   24  C   UNL     1      34.729   9.462  45.232  1.00  0.00     0.034 C 
BRANCH  24  25
HETATM   25  C   UNL     1      34.749   9.317  43.765  1.00  0.00     0.056 A 
HETATM   26  N   UNL     1      34.643   8.056  43.313  1.00  0.00    -0.261 NA
HETATM   27  C   UNL     1      34.662   7.912  41.970  1.00  0.00     0.117 A 
HETATM   28  C   UNL     1      34.781   8.968  41.079  1.00  0.00     0.019 A 
HETATM   29  C   UNL     1      34.887  10.252  41.602  1.00  0.00     0.004 A 
HETATM   30  C   UNL     1      34.872  10.438  42.980  1.00  0.00     0.031 A 
ENDBRANCH  24  25
ENDBRANCH   5  23
TORSDOF 5
