REMARK VINA RESULT:      -8.4     11.480     18.125
REMARK  5 active torsions:
REMARK  status: ('A' for Active; 'I' for Inactive)
REMARK    1  A    between atoms: S_1  and  C_11 
REMARK    2  A    between atoms: S_1  and  C_14 
REMARK       I    between atoms: N_5  and  C_21 
REMARK    3  A    between atoms: C_9  and  C_15 
REMARK    4  A    between atoms: C_16  and  C_21 
REMARK    5  A    between atoms: C_18  and  C_23 
ROOT
HETATM    1  N   UNL     1      33.403   8.619  50.542  1.00  0.00    -0.277 N 
HETATM    2  N   UNL     1      33.525   9.296  49.388  1.00  0.00    -0.174 NA
HETATM    3  C   UNL     1      34.597   7.276  49.285  1.00  0.00     0.022 A 
HETATM    4  C   UNL     1      34.024   7.399  50.546  1.00  0.00     0.064 A 
HETATM    5  C   UNL     1      34.252   8.475  48.625  1.00  0.00     0.089 A 
HETATM    6  C   UNL     1      34.129   6.412  51.529  1.00  0.00     0.051 A 
HETATM    7  C   UNL     1      34.849   5.261  51.198  1.00  0.00     0.007 A 
HETATM    8  C   UNL     1      35.318   6.113  48.967  1.00  0.00     0.017 A 
HETATM    9  C   UNL     1      35.435   5.112  49.939  1.00  0.00     0.020 A 
HETATM   10  H   UNL     1      32.880   9.048  51.295  1.00  0.00     0.189 HD
ENDROOT
BRANCH   7  11
HETATM   11  S   UNL     1      35.022   3.960  52.409  1.00  0.00    -0.089 SA
BRANCH  11  12
HETATM   12  C   UNL     1      36.564   4.417  53.189  1.00  0.00     0.021 A 
HETATM   13  C   UNL     1      36.758   4.300  54.567  1.00  0.00     0.049 A 
HETATM   14  C   UNL     1      37.978   4.669  55.134  1.00  0.00     0.018 A 
HETATM   15  C   UNL     1      39.005   5.156  54.326  1.00  0.00     0.001 A 
HETATM   16  C   UNL     1      38.813   5.275  52.950  1.00  0.00     0.001 A 
HETATM   17  C   UNL     1      37.593   4.906  52.383  1.00  0.00     0.020 A 
BRANCH  13  18
HETATM   18  C   UNL     1      35.720   3.796  55.459  1.00  0.00     0.252 C 
HETATM   19  O   UNL     1      35.586   2.576  55.638  1.00  0.00    -0.268 OA
HETATM   20  N   UNL     1      34.924   4.749  56.101  1.00  0.00    -0.361 N 
HETATM   21  C   UNL     1      33.870   4.409  57.031  1.00  0.00     0.149 C 
HETATM   22  H   UNL     1      35.111   5.734  55.939  1.00  0.00     0.162 HD
ENDBRANCH  13  18
ENDBRANCH  11  12
ENDBRANCH   7  11
BRANCH   5  23
HETATM   23  C   UNL     1      34.629   8.793  47.294  1.00  0.00     0.036 C 
HETATM   24  C   UNL     1      34.035   8.390  46.139  1.00  0.00     0.034 C 
BRANCH  24  25
HETATM   25  C   UNL     1      34.484   8.746  44.781  1.00  0.00     0.056 A 
HETATM   26  N   UNL     1      35.338   9.782  44.714  1.00  0.00    -0.261 NA
HETATM   27  C   UNL     1      35.755  10.117  43.473  1.00  0.00     0.117 A 
HETATM   28  C   UNL     1      35.353   9.464  42.318  1.00  0.00     0.019 A 
HETATM   29  C   UNL     1      34.469   8.399  42.446  1.00  0.00     0.004 A 
HETATM   30  C   UNL     1      34.018   8.026  43.707  1.00  0.00     0.031 A 
ENDBRANCH  24  25
ENDBRANCH   5  23
TORSDOF 5
