REMARK VINA RESULT:      -9.4      0.000      0.000
REMARK  5 active torsions:
REMARK  status: ('A' for Active; 'I' for Inactive)
REMARK    1  A    between atoms: S_1  and  C_11 
REMARK    2  A    between atoms: S_1  and  C_14 
REMARK       I    between atoms: N_5  and  C_21 
REMARK    3  A    between atoms: C_9  and  C_15 
REMARK    4  A    between atoms: C_16  and  C_21 
REMARK    5  A    between atoms: C_18  and  C_23 
ROOT
HETATM    1  N   UNL     1      36.126  16.167  37.709  1.00  0.00    -0.277 N 
HETATM    2  N   UNL     1      35.673  15.296  38.626  1.00  0.00    -0.174 NA
HETATM    3  C   UNL     1      37.939  15.120  38.358  1.00  0.00     0.022 A 
HETATM    4  C   UNL     1      37.478  16.112  37.502  1.00  0.00     0.064 A 
HETATM    5  C   UNL     1      36.780  14.660  39.019  1.00  0.00     0.089 A 
HETATM    6  C   UNL     1      38.318  16.836  36.652  1.00  0.00     0.051 A 
HETATM    7  C   UNL     1      39.680  16.523  36.689  1.00  0.00     0.007 A 
HETATM    8  C   UNL     1      39.311  14.817  38.385  1.00  0.00     0.017 A 
HETATM    9  C   UNL     1      40.170  15.530  37.540  1.00  0.00     0.020 A 
HETATM   10  H   UNL     1      35.455  16.776  37.257  1.00  0.00     0.189 HD
ENDROOT
BRANCH   7  11
HETATM   11  S   UNL     1      40.810  17.409  35.628  1.00  0.00    -0.089 SA
BRANCH  11  12
HETATM   12  C   UNL     1      40.882  18.995  36.449  1.00  0.00     0.021 A 
HETATM   13  C   UNL     1      40.237  20.123  35.936  1.00  0.00     0.049 A 
HETATM   14  C   UNL     1      40.320  21.342  36.610  1.00  0.00     0.018 A 
HETATM   15  C   UNL     1      41.047  21.436  37.796  1.00  0.00     0.001 A 
HETATM   16  C   UNL     1      41.692  20.311  38.310  1.00  0.00     0.001 A 
HETATM   17  C   UNL     1      41.609  19.092  37.636  1.00  0.00     0.020 A 
BRANCH  13  18
HETATM   18  C   UNL     1      39.464  20.083  34.700  1.00  0.00     0.252 C 
HETATM   19  O   UNL     1      38.268  19.750  34.720  1.00  0.00    -0.268 OA
HETATM   20  N   UNL     1      40.127  20.455  33.528  1.00  0.00    -0.361 N 
HETATM   21  C   UNL     1      39.492  20.489  32.230  1.00  0.00     0.149 C 
HETATM   22  H   UNL     1      41.097  20.753  33.587  1.00  0.00     0.162 HD
ENDBRANCH  13  18
ENDBRANCH  11  12
ENDBRANCH   7  11
BRANCH   5  23
HETATM   23  C   UNL     1      36.771  13.633  39.999  1.00  0.00     0.036 C 
HETATM   24  C   UNL     1      36.261  12.378  39.889  1.00  0.00     0.034 C 
BRANCH  24  25
HETATM   25  C   UNL     1      36.273  11.358  40.953  1.00  0.00     0.056 A 
HETATM   26  N   UNL     1      35.783  10.157  40.600  1.00  0.00    -0.261 NA
HETATM   27  C   UNL     1      35.789   9.215  41.569  1.00  0.00     0.117 A 
HETATM   28  C   UNL     1      36.258   9.430  42.856  1.00  0.00     0.019 A 
HETATM   29  C   UNL     1      36.753  10.691  43.166  1.00  0.00     0.004 A 
HETATM   30  C   UNL     1      36.763  11.686  42.195  1.00  0.00     0.031 A 
ENDBRANCH  24  25
ENDBRANCH   5  23
TORSDOF 5
