REMARK VINA RESULT:      -8.0     15.515     22.164
REMARK  5 active torsions:
REMARK  status: ('A' for Active; 'I' for Inactive)
REMARK    1  A    between atoms: S_1  and  C_11 
REMARK    2  A    between atoms: S_1  and  C_14 
REMARK       I    between atoms: N_5  and  C_21 
REMARK    3  A    between atoms: C_9  and  C_15 
REMARK    4  A    between atoms: C_16  and  C_21 
REMARK    5  A    between atoms: C_18  and  C_23 
ROOT
HETATM    1  N   UNL     1      37.804   5.623  53.938  1.00  0.00    -0.277 N 
HETATM    2  N   UNL     1      37.609   6.590  53.026  1.00  0.00    -0.174 NA
HETATM    3  C   UNL     1      35.667   5.462  53.471  1.00  0.00     0.022 A 
HETATM    4  C   UNL     1      36.678   4.908  54.249  1.00  0.00     0.064 A 
HETATM    5  C   UNL     1      36.307   6.489  52.745  1.00  0.00     0.089 A 
HETATM    6  C   UNL     1      36.465   3.845  55.130  1.00  0.00     0.051 A 
HETATM    7  C   UNL     1      35.165   3.338  55.209  1.00  0.00     0.007 A 
HETATM    8  C   UNL     1      34.365   4.941  53.563  1.00  0.00     0.017 A 
HETATM    9  C   UNL     1      34.131   3.875  54.440  1.00  0.00     0.020 A 
HETATM   10  H   UNL     1      38.737   5.499  54.311  1.00  0.00     0.189 HD
ENDROOT
BRANCH   7  11
HETATM   11  S   UNL     1      34.824   1.978  56.315  1.00  0.00    -0.089 SA
BRANCH  11  12
HETATM   12  C   UNL     1      34.987   2.777  57.905  1.00  0.00     0.021 A 
HETATM   13  C   UNL     1      36.132   2.632  58.692  1.00  0.00     0.049 A 
HETATM   14  C   UNL     1      36.217   3.275  59.927  1.00  0.00     0.018 A 
HETATM   15  C   UNL     1      35.158   4.062  60.379  1.00  0.00     0.001 A 
HETATM   16  C   UNL     1      34.013   4.208  59.596  1.00  0.00     0.001 A 
HETATM   17  C   UNL     1      33.928   3.565  58.361  1.00  0.00     0.020 A 
BRANCH  13  18
HETATM   18  C   UNL     1      37.268   1.822  58.269  1.00  0.00     0.252 C 
HETATM   19  O   UNL     1      38.171   2.321  57.579  1.00  0.00    -0.268 OA
HETATM   20  N   UNL     1      37.289   0.492  58.697  1.00  0.00    -0.361 N 
HETATM   21  C   UNL     1      38.358  -0.429  58.382  1.00  0.00     0.149 C 
HETATM   22  H   UNL     1      36.537   0.157  59.292  1.00  0.00     0.162 HD
ENDBRANCH  13  18
ENDBRANCH  11  12
ENDBRANCH   7  11
BRANCH   5  23
HETATM   23  C   UNL     1      35.653   7.335  51.811  1.00  0.00     0.036 C 
HETATM   24  C   UNL     1      34.804   8.365  52.068  1.00  0.00     0.034 C 
BRANCH  24  25
HETATM   25  C   UNL     1      34.146   9.201  51.048  1.00  0.00     0.056 A 
HETATM   26  N   UNL     1      34.389   8.848  49.775  1.00  0.00    -0.261 NA
HETATM   27  C   UNL     1      33.790   9.610  48.832  1.00  0.00     0.117 A 
HETATM   28  C   UNL     1      32.972  10.693  49.115  1.00  0.00     0.019 A 
HETATM   29  C   UNL     1      32.755  11.013  50.451  1.00  0.00     0.004 A 
HETATM   30  C   UNL     1      33.355  10.252  51.448  1.00  0.00     0.031 A 
ENDBRANCH  24  25
ENDBRANCH   5  23
TORSDOF 5
