REMARK VINA RESULT:      -8.8      7.748      9.359
REMARK  5 active torsions:
REMARK  status: ('A' for Active; 'I' for Inactive)
REMARK    1  A    between atoms: S_1  and  C_11 
REMARK    2  A    between atoms: S_1  and  C_14 
REMARK       I    between atoms: N_5  and  C_21 
REMARK    3  A    between atoms: C_9  and  C_15 
REMARK    4  A    between atoms: C_16  and  C_21 
REMARK    5  A    between atoms: C_18  and  C_23 
ROOT
HETATM    1  N   UNL     1      44.430  16.153  38.883  1.00  0.00    -0.277 N 
HETATM    2  N   UNL     1      43.144  16.426  38.604  1.00  0.00    -0.174 NA
HETATM    3  C   UNL     1      43.322  14.804  40.209  1.00  0.00     0.022 A 
HETATM    4  C   UNL     1      44.605  15.188  39.838  1.00  0.00     0.064 A 
HETATM    5  C   UNL     1      42.472  15.603  39.414  1.00  0.00     0.089 A 
HETATM    6  C   UNL     1      45.758  14.632  40.397  1.00  0.00     0.051 A 
HETATM    7  C   UNL     1      45.578  13.646  41.371  1.00  0.00     0.007 A 
HETATM    8  C   UNL     1      43.157  13.811  41.191  1.00  0.00     0.017 A 
HETATM    9  C   UNL     1      44.300  13.241  41.763  1.00  0.00     0.020 A 
HETATM   10  H   UNL     1      45.146  16.664  38.382  1.00  0.00     0.189 HD
ENDROOT
BRANCH   7  11
HETATM   11  S   UNL     1      47.010  12.892  42.127  1.00  0.00    -0.089 SA
BRANCH  11  12
HETATM   12  C   UNL     1      47.727  14.290  42.978  1.00  0.00     0.021 A 
HETATM   13  C   UNL     1      49.026  14.731  42.711  1.00  0.00     0.049 A 
HETATM   14  C   UNL     1      49.546  15.827  43.399  1.00  0.00     0.018 A 
HETATM   15  C   UNL     1      48.771  16.483  44.355  1.00  0.00     0.001 A 
HETATM   16  C   UNL     1      47.475  16.044  44.624  1.00  0.00     0.001 A 
HETATM   17  C   UNL     1      46.954  14.948  43.936  1.00  0.00     0.020 A 
BRANCH  13  18
HETATM   18  C   UNL     1      49.879  14.083  41.722  1.00  0.00     0.252 C 
HETATM   19  O   UNL     1      49.856  14.450  40.537  1.00  0.00    -0.268 OA
HETATM   20  N   UNL     1      50.721  13.068  42.184  1.00  0.00    -0.361 N 
HETATM   21  C   UNL     1      51.642  12.348  41.333  1.00  0.00     0.149 C 
HETATM   22  H   UNL     1      50.718  12.841  43.174  1.00  0.00     0.162 HD
ENDBRANCH  13  18
ENDBRANCH  11  12
ENDBRANCH   7  11
BRANCH   5  23
HETATM   23  C   UNL     1      41.054  15.551  39.455  1.00  0.00     0.036 C 
HETATM   24  C   UNL     1      40.213  14.981  38.553  1.00  0.00     0.034 C 
BRANCH  24  25
HETATM   25  C   UNL     1      38.742  14.973  38.648  1.00  0.00     0.056 A 
HETATM   26  N   UNL     1      38.145  16.151  38.400  1.00  0.00    -0.261 NA
HETATM   27  C   UNL     1      36.797  16.154  38.486  1.00  0.00     0.117 A 
HETATM   28  C   UNL     1      36.038  15.038  38.805  1.00  0.00     0.019 A 
HETATM   29  C   UNL     1      36.707  13.844  39.051  1.00  0.00     0.004 A 
HETATM   30  C   UNL     1      38.095  13.804  38.973  1.00  0.00     0.031 A 
ENDBRANCH  24  25
ENDBRANCH   5  23
TORSDOF 5
