REMARK VINA RESULT:      -8.9      7.195      9.155
REMARK  5 active torsions:
REMARK  status: ('A' for Active; 'I' for Inactive)
REMARK    1  A    between atoms: S_1  and  C_11 
REMARK    2  A    between atoms: S_1  and  C_14 
REMARK       I    between atoms: N_5  and  C_21 
REMARK    3  A    between atoms: C_9  and  C_15 
REMARK    4  A    between atoms: C_16  and  C_21 
REMARK    5  A    between atoms: C_18  and  C_23 
ROOT
HETATM    1  N   UNL     1      44.025  16.307  38.222  1.00  0.00    -0.277 N 
HETATM    2  N   UNL     1      42.768  16.430  37.765  1.00  0.00    -0.174 NA
HETATM    3  C   UNL     1      42.803  15.554  39.880  1.00  0.00     0.022 A 
HETATM    4  C   UNL     1      44.116  15.787  39.485  1.00  0.00     0.064 A 
HETATM    5  C   UNL     1      42.027  15.971  38.777  1.00  0.00     0.089 A 
HETATM    6  C   UNL     1      45.216  15.508  40.299  1.00  0.00     0.051 A 
HETATM    7  C   UNL     1      44.951  14.970  41.562  1.00  0.00     0.007 A 
HETATM    8  C   UNL     1      42.553  15.013  41.152  1.00  0.00     0.017 A 
HETATM    9  C   UNL     1      43.642  14.726  41.983  1.00  0.00     0.020 A 
HETATM   10  H   UNL     1      44.784  16.597  37.617  1.00  0.00     0.189 HD
ENDROOT
BRANCH   7  11
HETATM   11  S   UNL     1      46.312  14.589  42.653  1.00  0.00    -0.089 SA
BRANCH  11  12
HETATM   12  C   UNL     1      47.116  13.270  41.755  1.00  0.00     0.021 A 
HETATM   13  C   UNL     1      48.462  13.337  41.388  1.00  0.00     0.049 A 
HETATM   14  C   UNL     1      49.049  12.284  40.687  1.00  0.00     0.018 A 
HETATM   15  C   UNL     1      48.293  11.162  40.351  1.00  0.00     0.001 A 
HETATM   16  C   UNL     1      46.948  11.092  40.716  1.00  0.00     0.001 A 
HETATM   17  C   UNL     1      46.361  12.145  41.416  1.00  0.00     0.020 A 
BRANCH  13  18
HETATM   18  C   UNL     1      49.300  14.486  41.714  1.00  0.00     0.252 C 
HETATM   19  O   UNL     1      49.412  15.427  40.913  1.00  0.00    -0.268 OA
HETATM   20  N   UNL     1      49.931  14.473  42.960  1.00  0.00    -0.361 N 
HETATM   21  C   UNL     1      50.773  15.547  43.438  1.00  0.00     0.149 C 
HETATM   22  H   UNL     1      49.767  13.688  43.585  1.00  0.00     0.162 HD
ENDBRANCH  13  18
ENDBRANCH  11  12
ENDBRANCH   7  11
BRANCH   5  23
HETATM   23  C   UNL     1      40.609  15.916  38.730  1.00  0.00     0.036 C 
HETATM   24  C   UNL     1      39.813  14.816  38.803  1.00  0.00     0.034 C 
BRANCH  24  25
HETATM   25  C   UNL     1      38.341  14.825  38.735  1.00  0.00     0.056 A 
HETATM   26  N   UNL     1      37.789  16.009  38.420  1.00  0.00    -0.261 NA
HETATM   27  C   UNL     1      36.439  16.027  38.357  1.00  0.00     0.117 A 
HETATM   28  C   UNL     1      35.637  14.921  38.594  1.00  0.00     0.019 A 
HETATM   29  C   UNL     1      36.261  13.721  38.916  1.00  0.00     0.004 A 
HETATM   30  C   UNL     1      37.648  13.665  38.991  1.00  0.00     0.031 A 
ENDBRANCH  24  25
ENDBRANCH   5  23
TORSDOF 5
