REMARK VINA RESULT:      -8.4      5.749      7.763
REMARK  5 active torsions:
REMARK  status: ('A' for Active; 'I' for Inactive)
REMARK    1  A    between atoms: S_1  and  C_11 
REMARK    2  A    between atoms: S_1  and  C_14 
REMARK       I    between atoms: N_5  and  C_21 
REMARK    3  A    between atoms: C_9  and  C_15 
REMARK    4  A    between atoms: C_16  and  C_21 
REMARK    5  A    between atoms: C_18  and  C_23 
ROOT
HETATM    1  N   UNL     1      41.749  17.472  37.060  1.00  0.00    -0.277 N 
HETATM    2  N   UNL     1      40.426  17.243  37.007  1.00  0.00    -0.174 NA
HETATM    3  C   UNL     1      41.421  15.994  38.647  1.00  0.00     0.022 A 
HETATM    4  C   UNL     1      42.405  16.752  38.023  1.00  0.00     0.064 A 
HETATM    5  C   UNL     1      40.230  16.344  37.975  1.00  0.00     0.089 A 
HETATM    6  C   UNL     1      43.751  16.705  38.393  1.00  0.00     0.051 A 
HETATM    7  C   UNL     1      44.091  15.845  39.441  1.00  0.00     0.007 A 
HETATM    8  C   UNL     1      41.778  15.134  39.700  1.00  0.00     0.017 A 
HETATM    9  C   UNL     1      43.123  15.072  40.085  1.00  0.00     0.020 A 
HETATM   10  H   UNL     1      42.146  18.134  36.406  1.00  0.00     0.189 HD
ENDROOT
BRANCH   7  11
HETATM   11  S   UNL     1      45.795  15.735  39.964  1.00  0.00    -0.089 SA
BRANCH  11  12
HETATM   12  C   UNL     1      45.974  13.972  40.189  1.00  0.00     0.021 A 
HETATM   13  C   UNL     1      45.998  13.387  41.458  1.00  0.00     0.049 A 
HETATM   14  C   UNL     1      46.140  12.005  41.587  1.00  0.00     0.018 A 
HETATM   15  C   UNL     1      46.258  11.206  40.451  1.00  0.00     0.001 A 
HETATM   16  C   UNL     1      46.235  11.787  39.183  1.00  0.00     0.001 A 
HETATM   17  C   UNL     1      46.093  13.169  39.053  1.00  0.00     0.020 A 
BRANCH  13  18
HETATM   18  C   UNL     1      45.878  14.174  42.679  1.00  0.00     0.252 C 
HETATM   19  O   UNL     1      44.763  14.394  43.177  1.00  0.00    -0.268 OA
HETATM   20  N   UNL     1      47.067  14.633  43.253  1.00  0.00    -0.361 N 
HETATM   21  C   UNL     1      47.116  15.405  44.475  1.00  0.00     0.149 C 
HETATM   22  H   UNL     1      47.950  14.386  42.816  1.00  0.00     0.162 HD
ENDBRANCH  13  18
ENDBRANCH  11  12
ENDBRANCH   7  11
BRANCH   5  23
HETATM   23  C   UNL     1      38.951  15.807  38.280  1.00  0.00     0.036 C 
HETATM   24  C   UNL     1      38.652  14.551  38.702  1.00  0.00     0.034 C 
BRANCH  24  25
HETATM   25  C   UNL     1      37.296  14.049  38.992  1.00  0.00     0.056 A 
HETATM   26  N   UNL     1      37.247  12.891  39.672  1.00  0.00    -0.261 NA
HETATM   27  C   UNL     1      36.008  12.423  39.940  1.00  0.00     0.117 A 
HETATM   28  C   UNL     1      34.838  13.062  39.559  1.00  0.00     0.019 A 
HETATM   29  C   UNL     1      34.949  14.257  38.858  1.00  0.00     0.004 A 
HETATM   30  C   UNL     1      36.207  14.770  38.562  1.00  0.00     0.031 A 
ENDBRANCH  24  25
ENDBRANCH   5  23
TORSDOF 5
