REMARK VINA RESULT:      -9.4      0.000      0.000
REMARK  5 active torsions:
REMARK  status: ('A' for Active; 'I' for Inactive)
REMARK    1  A    between atoms: S_1  and  C_11 
REMARK    2  A    between atoms: S_1  and  C_14 
REMARK       I    between atoms: N_5  and  C_21 
REMARK    3  A    between atoms: C_9  and  C_15 
REMARK    4  A    between atoms: C_16  and  C_21 
REMARK    5  A    between atoms: C_18  and  C_23 
ROOT
HETATM    1  N   UNL     1      36.224  16.110  37.723  1.00  0.00    -0.277 N 
HETATM    2  N   UNL     1      35.787  15.221  38.631  1.00  0.00    -0.174 NA
HETATM    3  C   UNL     1      38.055  15.077  38.349  1.00  0.00     0.022 A 
HETATM    4  C   UNL     1      37.576  16.074  37.507  1.00  0.00     0.064 A 
HETATM    5  C   UNL     1      36.904  14.595  39.010  1.00  0.00     0.089 A 
HETATM    6  C   UNL     1      38.402  16.819  36.662  1.00  0.00     0.051 A 
HETATM    7  C   UNL     1      39.768  16.522  36.688  1.00  0.00     0.007 A 
HETATM    8  C   UNL     1      39.430  14.791  38.365  1.00  0.00     0.017 A 
HETATM    9  C   UNL     1      40.276  15.526  37.524  1.00  0.00     0.020 A 
HETATM   10  H   UNL     1      35.544  16.716  37.282  1.00  0.00     0.189 HD
ENDROOT
BRANCH   7  11
HETATM   11  S   UNL     1      40.881  17.436  35.632  1.00  0.00    -0.089 SA
BRANCH  11  12
HETATM   12  C   UNL     1      40.914  19.022  36.456  1.00  0.00     0.021 A 
HETATM   13  C   UNL     1      40.253  20.138  35.938  1.00  0.00     0.049 A 
HETATM   14  C   UNL     1      40.305  21.357  36.615  1.00  0.00     0.018 A 
HETATM   15  C   UNL     1      41.019  21.463  37.808  1.00  0.00     0.001 A 
HETATM   16  C   UNL     1      41.682  20.350  38.326  1.00  0.00     0.001 A 
HETATM   17  C   UNL     1      41.629  19.131  37.650  1.00  0.00     0.020 A 
BRANCH  13  18
HETATM   18  C   UNL     1      39.491  20.084  34.696  1.00  0.00     0.252 C 
HETATM   19  O   UNL     1      38.291  19.769  34.709  1.00  0.00    -0.268 OA
HETATM   20  N   UNL     1      40.172  20.424  33.524  1.00  0.00    -0.361 N 
HETATM   21  C   UNL     1      39.550  20.442  32.218  1.00  0.00     0.149 C 
HETATM   22  H   UNL     1      41.145  20.710  33.587  1.00  0.00     0.162 HD
ENDBRANCH  13  18
ENDBRANCH  11  12
ENDBRANCH   7  11
BRANCH   5  23
HETATM   23  C   UNL     1      36.914  13.556  39.978  1.00  0.00     0.036 C 
HETATM   24  C   UNL     1      36.223  12.385  39.953  1.00  0.00     0.034 C 
BRANCH  24  25
HETATM   25  C   UNL     1      36.267  11.348  41.000  1.00  0.00     0.056 A 
HETATM   26  N   UNL     1      35.821  10.137  40.625  1.00  0.00    -0.261 NA
HETATM   27  C   UNL     1      35.856   9.180  41.578  1.00  0.00     0.117 A 
HETATM   28  C   UNL     1      36.313   9.389  42.870  1.00  0.00     0.019 A 
HETATM   29  C   UNL     1      36.763  10.662  43.203  1.00  0.00     0.004 A 
HETATM   30  C   UNL     1      36.742  11.673  42.249  1.00  0.00     0.031 A 
ENDBRANCH  24  25
ENDBRANCH   5  23
TORSDOF 5
