REMARK VINA RESULT:      -7.7     14.431     17.297
REMARK  5 active torsions:
REMARK  status: ('A' for Active; 'I' for Inactive)
REMARK    1  A    between atoms: S_1  and  C_11 
REMARK    2  A    between atoms: S_1  and  C_14 
REMARK       I    between atoms: N_5  and  C_21 
REMARK    3  A    between atoms: C_9  and  C_15 
REMARK    4  A    between atoms: C_16  and  C_21 
REMARK    5  A    between atoms: C_18  and  C_23 
ROOT
HETATM    1  N   UNL     1      38.160   4.030  52.651  1.00  0.00    -0.277 N 
HETATM    2  N   UNL     1      39.495   3.981  52.507  1.00  0.00    -0.174 NA
HETATM    3  C   UNL     1      38.472   4.630  50.565  1.00  0.00     0.022 A 
HETATM    4  C   UNL     1      37.487   4.412  51.522  1.00  0.00     0.064 A 
HETATM    5  C   UNL     1      39.681   4.347  51.237  1.00  0.00     0.089 A 
HETATM    6  C   UNL     1      36.125   4.583  51.264  1.00  0.00     0.051 A 
HETATM    7  C   UNL     1      35.769   4.991  49.976  1.00  0.00     0.007 A 
HETATM    8  C   UNL     1      38.099   5.041  49.274  1.00  0.00     0.017 A 
HETATM    9  C   UNL     1      36.738   5.217  48.996  1.00  0.00     0.020 A 
HETATM   10  H   UNL     1      37.767   3.788  53.552  1.00  0.00     0.189 HD
ENDROOT
BRANCH   7  11
HETATM   11  S   UNL     1      34.044   5.228  49.579  1.00  0.00    -0.089 SA
BRANCH  11  12
HETATM   12  C   UNL     1      34.067   6.888  48.916  1.00  0.00     0.021 A 
HETATM   13  C   UNL     1      34.078   8.014  49.743  1.00  0.00     0.049 A 
HETATM   14  C   UNL     1      34.096   9.291  49.183  1.00  0.00     0.018 A 
HETATM   15  C   UNL     1      34.101   9.446  47.797  1.00  0.00     0.001 A 
HETATM   16  C   UNL     1      34.089   8.323  46.969  1.00  0.00     0.001 A 
HETATM   17  C   UNL     1      34.071   7.046  47.529  1.00  0.00     0.020 A 
BRANCH  13  18
HETATM   18  C   UNL     1      34.074   7.911  51.197  1.00  0.00     0.252 C 
HETATM   19  O   UNL     1      33.013   7.705  51.808  1.00  0.00    -0.268 OA
HETATM   20  N   UNL     1      35.308   8.029  51.842  1.00  0.00    -0.361 N 
HETATM   21  C   UNL     1      35.471   7.926  53.275  1.00  0.00     0.149 C 
HETATM   22  H   UNL     1      36.144   8.159  51.280  1.00  0.00     0.162 HD
ENDBRANCH  13  18
ENDBRANCH  11  12
ENDBRANCH   7  11
BRANCH   5  23
HETATM   23  C   UNL     1      40.967   4.437  50.642  1.00  0.00     0.036 C 
HETATM   24  C   UNL     1      41.780   5.524  50.570  1.00  0.00     0.034 C 
BRANCH  24  25
HETATM   25  C   UNL     1      43.105   5.555  49.924  1.00  0.00     0.056 A 
HETATM   26  N   UNL     1      43.530   4.379  49.433  1.00  0.00    -0.261 NA
HETATM   27  C   UNL     1      44.744   4.397  48.840  1.00  0.00     0.117 A 
HETATM   28  C   UNL     1      45.533   5.531  48.724  1.00  0.00     0.019 A 
HETATM   29  C   UNL     1      45.044   6.721  49.250  1.00  0.00     0.004 A 
HETATM   30  C   UNL     1      43.798   6.741  49.869  1.00  0.00     0.031 A 
ENDBRANCH  24  25
ENDBRANCH   5  23
TORSDOF 5
