REMARK VINA RESULT:      -8.0     15.501     22.161
REMARK  5 active torsions:
REMARK  status: ('A' for Active; 'I' for Inactive)
REMARK    1  A    between atoms: S_1  and  C_11 
REMARK    2  A    between atoms: S_1  and  C_14 
REMARK       I    between atoms: N_5  and  C_21 
REMARK    3  A    between atoms: C_9  and  C_15 
REMARK    4  A    between atoms: C_16  and  C_21 
REMARK    5  A    between atoms: C_18  and  C_23 
ROOT
HETATM    1  N   UNL     1      37.805   5.702  53.920  1.00  0.00    -0.277 N 
HETATM    2  N   UNL     1      37.565   6.658  53.007  1.00  0.00    -0.174 NA
HETATM    3  C   UNL     1      35.680   5.437  53.449  1.00  0.00     0.022 A 
HETATM    4  C   UNL     1      36.714   4.934  54.229  1.00  0.00     0.064 A 
HETATM    5  C   UNL     1      36.271   6.494  52.723  1.00  0.00     0.089 A 
HETATM    6  C   UNL     1      36.551   3.863  55.111  1.00  0.00     0.051 A 
HETATM    7  C   UNL     1      35.277   3.293  55.187  1.00  0.00     0.007 A 
HETATM    8  C   UNL     1      34.404   4.854  53.537  1.00  0.00     0.017 A 
HETATM    9  C   UNL     1      34.220   3.779  54.415  1.00  0.00     0.020 A 
HETATM   10  H   UNL     1      38.742   5.624  54.296  1.00  0.00     0.189 HD
ENDROOT
BRANCH   7  11
HETATM   11  S   UNL     1      34.999   1.919  56.294  1.00  0.00    -0.089 SA
BRANCH  11  12
HETATM   12  C   UNL     1      35.069   2.736  57.882  1.00  0.00     0.021 A 
HETATM   13  C   UNL     1      36.175   2.617  58.727  1.00  0.00     0.049 A 
HETATM   14  C   UNL     1      36.187   3.272  59.958  1.00  0.00     0.018 A 
HETATM   15  C   UNL     1      35.095   4.046  60.349  1.00  0.00     0.001 A 
HETATM   16  C   UNL     1      33.988   4.166  59.507  1.00  0.00     0.001 A 
HETATM   17  C   UNL     1      33.976   3.511  58.276  1.00  0.00     0.020 A 
BRANCH  13  18
HETATM   18  C   UNL     1      37.344   1.822  58.370  1.00  0.00     0.252 C 
HETATM   19  O   UNL     1      38.188   2.269  57.577  1.00  0.00    -0.268 OA
HETATM   20  N   UNL     1      37.465   0.569  58.977  1.00  0.00    -0.361 N 
HETATM   21  C   UNL     1      38.577  -0.325  58.744  1.00  0.00     0.149 C 
HETATM   22  H   UNL     1      36.757   0.279  59.645  1.00  0.00     0.162 HD
ENDBRANCH  13  18
ENDBRANCH  11  12
ENDBRANCH   7  11
BRANCH   5  23
HETATM   23  C   UNL     1      35.579   7.306  51.786  1.00  0.00     0.036 C 
HETATM   24  C   UNL     1      34.981   8.507  52.004  1.00  0.00     0.034 C 
BRANCH  24  25
HETATM   25  C   UNL     1      34.265   9.299  50.987  1.00  0.00     0.056 A 
HETATM   26  N   UNL     1      34.362   8.836  49.729  1.00  0.00    -0.261 NA
HETATM   27  C   UNL     1      33.710   9.556  48.790  1.00  0.00     0.117 A 
HETATM   28  C   UNL     1      32.978  10.702  49.060  1.00  0.00     0.019 A 
HETATM   29  C   UNL     1      32.912  11.135  50.380  1.00  0.00     0.004 A 
HETATM   30  C   UNL     1      33.571  10.421  51.374  1.00  0.00     0.031 A 
ENDBRANCH  24  25
ENDBRANCH   5  23
TORSDOF 5
