REMARK VINA RESULT:      -7.8     15.440     21.621
REMARK  5 active torsions:
REMARK  status: ('A' for Active; 'I' for Inactive)
REMARK    1  A    between atoms: S_1  and  C_11 
REMARK    2  A    between atoms: S_1  and  C_14 
REMARK       I    between atoms: N_5  and  C_21 
REMARK    3  A    between atoms: C_9  and  C_15 
REMARK    4  A    between atoms: C_16  and  C_21 
REMARK    5  A    between atoms: C_18  and  C_23 
ROOT
HETATM    1  N   UNL     1      35.590   3.329  50.268  1.00  0.00    -0.277 N 
HETATM    2  N   UNL     1      35.306   4.463  49.605  1.00  0.00    -0.174 NA
HETATM    3  C   UNL     1      35.196   4.774  51.870  1.00  0.00     0.022 A 
HETATM    4  C   UNL     1      35.540   3.448  51.632  1.00  0.00     0.064 A 
HETATM    5  C   UNL     1      35.068   5.340  50.584  1.00  0.00     0.089 A 
HETATM    6  C   UNL     1      35.765   2.524  52.654  1.00  0.00     0.051 A 
HETATM    7  C   UNL     1      35.629   2.985  53.967  1.00  0.00     0.007 A 
HETATM    8  C   UNL     1      35.063   5.222  53.195  1.00  0.00     0.017 A 
HETATM    9  C   UNL     1      35.284   4.311  54.235  1.00  0.00     0.020 A 
HETATM   10  H   UNL     1      35.809   2.502  49.728  1.00  0.00     0.189 HD
ENDROOT
BRANCH   7  11
HETATM   11  S   UNL     1      35.901   1.855  55.322  1.00  0.00    -0.089 SA
BRANCH  11  12
HETATM   12  C   UNL     1      34.779   2.509  56.549  1.00  0.00     0.021 A 
HETATM   13  C   UNL     1      35.153   2.665  57.886  1.00  0.00     0.049 A 
HETATM   14  C   UNL     1      34.244   3.181  58.810  1.00  0.00     0.018 A 
HETATM   15  C   UNL     1      32.960   3.540  58.401  1.00  0.00     0.001 A 
HETATM   16  C   UNL     1      32.584   3.385  57.066  1.00  0.00     0.001 A 
HETATM   17  C   UNL     1      33.493   2.870  56.142  1.00  0.00     0.020 A 
BRANCH  13  18
HETATM   18  C   UNL     1      36.481   2.306  58.368  1.00  0.00     0.252 C 
HETATM   19  O   UNL     1      37.336   3.184  58.562  1.00  0.00    -0.268 OA
HETATM   20  N   UNL     1      36.717   0.952  58.616  1.00  0.00    -0.361 N 
HETATM   21  C   UNL     1      37.973   0.441  59.119  1.00  0.00     0.149 C 
HETATM   22  H   UNL     1      35.961   0.288  58.472  1.00  0.00     0.162 HD
ENDBRANCH  13  18
ENDBRANCH  11  12
ENDBRANCH   7  11
BRANCH   5  23
HETATM   23  C   UNL     1      34.723   6.695  50.336  1.00  0.00     0.036 C 
HETATM   24  C   UNL     1      33.642   7.379  50.797  1.00  0.00     0.034 C 
BRANCH  24  25
HETATM   25  C   UNL     1      33.332   8.787  50.492  1.00  0.00     0.056 A 
HETATM   26  N   UNL     1      33.378   9.114  49.189  1.00  0.00    -0.261 NA
HETATM   27  C   UNL     1      33.097  10.404  48.900  1.00  0.00     0.117 A 
HETATM   28  C   UNL     1      32.778  11.361  49.851  1.00  0.00     0.019 A 
HETATM   29  C   UNL     1      32.745  10.967  51.184  1.00  0.00     0.004 A 
HETATM   30  C   UNL     1      33.029   9.648  51.520  1.00  0.00     0.031 A 
ENDBRANCH  24  25
ENDBRANCH   5  23
TORSDOF 5
