REMARK VINA RESULT:      -8.0      2.177      3.042
REMARK  5 active torsions:
REMARK  status: ('A' for Active; 'I' for Inactive)
REMARK    1  A    between atoms: S_1  and  C_11 
REMARK    2  A    between atoms: S_1  and  C_14 
REMARK       I    between atoms: N_5  and  C_21 
REMARK    3  A    between atoms: C_9  and  C_15 
REMARK    4  A    between atoms: C_16  and  C_21 
REMARK    5  A    between atoms: C_18  and  C_23 
ROOT
HETATM    1  N   UNL     1      41.598  15.577  38.103  1.00  0.00    -0.277 N 
HETATM    2  N   UNL     1      40.696  14.881  38.816  1.00  0.00    -0.174 NA
HETATM    3  C   UNL     1      39.674  16.272  37.311  1.00  0.00     0.022 A 
HETATM    4  C   UNL     1      41.049  16.430  37.183  1.00  0.00     0.064 A 
HETATM    5  C   UNL     1      39.526  15.306  38.331  1.00  0.00     0.089 A 
HETATM    6  C   UNL     1      41.632  17.309  36.267  1.00  0.00     0.051 A 
HETATM    7  C   UNL     1      40.765  18.048  35.458  1.00  0.00     0.007 A 
HETATM    8  C   UNL     1      38.815  17.021  36.490  1.00  0.00     0.017 A 
HETATM    9  C   UNL     1      39.380  17.908  35.565  1.00  0.00     0.020 A 
HETATM   10  H   UNL     1      42.580  15.424  38.296  1.00  0.00     0.189 HD
ENDROOT
BRANCH   7  11
HETATM   11  S   UNL     1      41.444  19.191  34.265  1.00  0.00    -0.089 SA
BRANCH  11  12
HETATM   12  C   UNL     1      41.915  20.553  35.321  1.00  0.00     0.021 A 
HETATM   13  C   UNL     1      41.031  21.590  35.630  1.00  0.00     0.049 A 
HETATM   14  C   UNL     1      41.441  22.634  36.459  1.00  0.00     0.018 A 
HETATM   15  C   UNL     1      42.734  22.645  36.981  1.00  0.00     0.001 A 
HETATM   16  C   UNL     1      43.619  21.611  36.674  1.00  0.00     0.001 A 
HETATM   17  C   UNL     1      43.209  20.567  35.845  1.00  0.00     0.020 A 
BRANCH  13  18
HETATM   18  C   UNL     1      39.668  21.630  35.112  1.00  0.00     0.252 C 
HETATM   19  O   UNL     1      38.731  21.167  35.780  1.00  0.00    -0.268 OA
HETATM   20  N   UNL     1      39.486  22.227  33.862  1.00  0.00    -0.361 N 
HETATM   21  C   UNL     1      38.194  22.364  33.226  1.00  0.00     0.149 C 
HETATM   22  H   UNL     1      40.291  22.620  33.384  1.00  0.00     0.162 HD
ENDBRANCH  13  18
ENDBRANCH  11  12
ENDBRANCH   7  11
BRANCH   5  23
HETATM   23  C   UNL     1      38.277  14.826  38.803  1.00  0.00     0.036 C 
HETATM   24  C   UNL     1      37.891  13.534  38.978  1.00  0.00     0.034 C 
BRANCH  24  25
HETATM   25  C   UNL     1      36.568  13.099  39.463  1.00  0.00     0.056 A 
HETATM   26  N   UNL     1      35.529  13.827  39.020  1.00  0.00    -0.261 NA
HETATM   27  C   UNL     1      34.312  13.436  39.460  1.00  0.00     0.117 A 
HETATM   28  C   UNL     1      34.104  12.363  40.312  1.00  0.00     0.019 A 
HETATM   29  C   UNL     1      35.215  11.645  40.739  1.00  0.00     0.004 A 
HETATM   30  C   UNL     1      36.483  12.018  40.308  1.00  0.00     0.031 A 
ENDBRANCH  24  25
ENDBRANCH   5  23
TORSDOF 5
