REMARK VINA RESULT:      -8.0      2.522      4.480
REMARK  5 active torsions:
REMARK  status: ('A' for Active; 'I' for Inactive)
REMARK    1  A    between atoms: S_1  and  C_11 
REMARK    2  A    between atoms: S_1  and  C_14 
REMARK       I    between atoms: N_5  and  C_21 
REMARK    3  A    between atoms: C_9  and  C_15 
REMARK    4  A    between atoms: C_16  and  C_21 
REMARK    5  A    between atoms: C_18  and  C_23 
ROOT
HETATM    1  N   UNL     1      41.759  17.657  38.619  1.00  0.00    -0.277 N 
HETATM    2  N   UNL     1      41.034  16.722  39.257  1.00  0.00    -0.174 NA
HETATM    3  C   UNL     1      40.092  17.278  37.246  1.00  0.00     0.022 A 
HETATM    4  C   UNL     1      41.247  18.035  37.407  1.00  0.00     0.064 A 
HETATM    5  C   UNL     1      40.021  16.494  38.417  1.00  0.00     0.089 A 
HETATM    6  C   UNL     1      41.692  18.957  36.457  1.00  0.00     0.051 A 
HETATM    7  C   UNL     1      40.918  19.102  35.302  1.00  0.00     0.007 A 
HETATM    8  C   UNL     1      39.324  17.435  36.080  1.00  0.00     0.017 A 
HETATM    9  C   UNL     1      39.753  18.354  35.115  1.00  0.00     0.020 A 
HETATM   10  H   UNL     1      42.599  18.000  39.070  1.00  0.00     0.189 HD
ENDROOT
BRANCH   7  11
HETATM   11  S   UNL     1      41.429  20.264  34.047  1.00  0.00    -0.089 SA
BRANCH  11  12
HETATM   12  C   UNL     1      40.030  21.375  34.015  1.00  0.00     0.021 A 
HETATM   13  C   UNL     1      39.906  22.435  34.916  1.00  0.00     0.049 A 
HETATM   14  C   UNL     1      38.796  23.278  34.855  1.00  0.00     0.018 A 
HETATM   15  C   UNL     1      37.809  23.064  33.895  1.00  0.00     0.001 A 
HETATM   16  C   UNL     1      37.930  22.006  32.993  1.00  0.00     0.001 A 
HETATM   17  C   UNL     1      39.039  21.163  33.054  1.00  0.00     0.020 A 
BRANCH  13  18
HETATM   18  C   UNL     1      40.908  22.705  35.941  1.00  0.00     0.252 C 
HETATM   19  O   UNL     1      41.941  23.331  35.657  1.00  0.00    -0.268 OA
HETATM   20  N   UNL     1      40.629  22.249  37.232  1.00  0.00    -0.361 N 
HETATM   21  C   UNL     1      41.510  22.460  38.359  1.00  0.00     0.149 C 
HETATM   22  H   UNL     1      39.746  21.776  37.405  1.00  0.00     0.162 HD
ENDBRANCH  13  18
ENDBRANCH  11  12
ENDBRANCH   7  11
BRANCH   5  23
HETATM   23  C   UNL     1      38.990  15.557  38.692  1.00  0.00     0.036 C 
HETATM   24  C   UNL     1      37.646  15.746  38.607  1.00  0.00     0.034 C 
BRANCH  24  25
HETATM   25  C   UNL     1      36.623  14.732  38.919  1.00  0.00     0.056 A 
HETATM   26  N   UNL     1      35.352  15.120  38.715  1.00  0.00    -0.261 NA
HETATM   27  C   UNL     1      34.407  14.197  39.000  1.00  0.00     0.117 A 
HETATM   28  C   UNL     1      34.683  12.924  39.474  1.00  0.00     0.019 A 
HETATM   29  C   UNL     1      36.016  12.576  39.666  1.00  0.00     0.004 A 
HETATM   30  C   UNL     1      37.016  13.500  39.385  1.00  0.00     0.031 A 
ENDBRANCH  24  25
ENDBRANCH   5  23
TORSDOF 5
