REMARK VINA RESULT:      -9.1      3.248      3.783
REMARK  5 active torsions:
REMARK  status: ('A' for Active; 'I' for Inactive)
REMARK    1  A    between atoms: S_1  and  C_11 
REMARK    2  A    between atoms: S_1  and  C_14 
REMARK       I    between atoms: N_5  and  C_21 
REMARK    3  A    between atoms: C_9  and  C_15 
REMARK    4  A    between atoms: C_16  and  C_21 
REMARK    5  A    between atoms: C_18  and  C_23 
ROOT
HETATM    1  N   UNL     1      35.378  15.575  38.295  1.00  0.00    -0.277 N 
HETATM    2  N   UNL     1      34.732  14.483  38.737  1.00  0.00    -0.174 NA
HETATM    3  C   UNL     1      37.001  14.183  38.785  1.00  0.00     0.022 A 
HETATM    4  C   UNL     1      36.743  15.460  38.298  1.00  0.00     0.064 A 
HETATM    5  C   UNL     1      35.723  13.639  39.035  1.00  0.00     0.089 A 
HETATM    6  C   UNL     1      37.751  16.350  37.924  1.00  0.00     0.051 A 
HETATM    7  C   UNL     1      39.070  15.906  38.056  1.00  0.00     0.007 A 
HETATM    8  C   UNL     1      38.332  13.752  38.913  1.00  0.00     0.017 A 
HETATM    9  C   UNL     1      39.358  14.629  38.542  1.00  0.00     0.020 A 
HETATM   10  H   UNL     1      34.826  16.372  38.003  1.00  0.00     0.189 HD
ENDROOT
BRANCH   7  11
HETATM   11  S   UNL     1      40.409  16.994  37.595  1.00  0.00    -0.089 SA
BRANCH  11  12
HETATM   12  C   UNL     1      41.752  16.320  38.563  1.00  0.00     0.021 A 
HETATM   13  C   UNL     1      43.064  16.285  38.085  1.00  0.00     0.049 A 
HETATM   14  C   UNL     1      44.081  15.750  38.875  1.00  0.00     0.018 A 
HETATM   15  C   UNL     1      43.789  15.247  40.142  1.00  0.00     0.001 A 
HETATM   16  C   UNL     1      42.479  15.279  40.622  1.00  0.00     0.001 A 
HETATM   17  C   UNL     1      41.462  15.815  39.832  1.00  0.00     0.020 A 
BRANCH  13  18
HETATM   18  C   UNL     1      43.425  16.798  36.769  1.00  0.00     0.252 C 
HETATM   19  O   UNL     1      43.805  17.971  36.635  1.00  0.00    -0.268 OA
HETATM   20  N   UNL     1      43.344  15.902  35.699  1.00  0.00    -0.361 N 
HETATM   21  C   UNL     1      43.691  16.251  34.339  1.00  0.00     0.149 C 
HETATM   22  H   UNL     1      43.062  14.943  35.883  1.00  0.00     0.162 HD
ENDBRANCH  13  18
ENDBRANCH  11  12
ENDBRANCH   7  11
BRANCH   5  23
HETATM   23  C   UNL     1      35.495  12.335  39.547  1.00  0.00     0.036 C 
HETATM   24  C   UNL     1      35.253  11.974  40.836  1.00  0.00     0.034 C 
BRANCH  24  25
HETATM   25  C   UNL     1      35.036  10.594  41.307  1.00  0.00     0.056 A 
HETATM   26  N   UNL     1      34.658  10.481  42.592  1.00  0.00    -0.261 NA
HETATM   27  C   UNL     1      34.458   9.220  43.034  1.00  0.00     0.117 A 
HETATM   28  C   UNL     1      34.620   8.088  42.249  1.00  0.00     0.019 A 
HETATM   29  C   UNL     1      35.012   8.264  40.927  1.00  0.00     0.004 A 
HETATM   30  C   UNL     1      35.228   9.547  40.437  1.00  0.00     0.031 A 
ENDBRANCH  24  25
ENDBRANCH   5  23
TORSDOF 5
