REMARK VINA RESULT:      -9.4      0.000      0.000
REMARK  5 active torsions:
REMARK  status: ('A' for Active; 'I' for Inactive)
REMARK    1  A    between atoms: S_1  and  C_11 
REMARK    2  A    between atoms: S_1  and  C_14 
REMARK       I    between atoms: N_5  and  C_21 
REMARK    3  A    between atoms: C_9  and  C_15 
REMARK    4  A    between atoms: C_16  and  C_21 
REMARK    5  A    between atoms: C_18  and  C_23 
ROOT
HETATM    1  N   UNL     1      36.213  16.131  37.712  1.00  0.00    -0.277 N 
HETATM    2  N   UNL     1      35.756  15.257  38.624  1.00  0.00    -0.174 NA
HETATM    3  C   UNL     1      38.025  15.090  38.376  1.00  0.00     0.022 A 
HETATM    4  C   UNL     1      37.567  16.081  37.516  1.00  0.00     0.064 A 
HETATM    5  C   UNL     1      36.861  14.625  39.026  1.00  0.00     0.089 A 
HETATM    6  C   UNL     1      38.412  16.809  36.675  1.00  0.00     0.051 A 
HETATM    7  C   UNL     1      39.774  16.501  36.723  1.00  0.00     0.007 A 
HETATM    8  C   UNL     1      39.398  14.792  38.414  1.00  0.00     0.017 A 
HETATM    9  C   UNL     1      40.261  15.510  37.578  1.00  0.00     0.020 A 
HETATM   10  H   UNL     1      35.544  16.738  37.255  1.00  0.00     0.189 HD
ENDROOT
BRANCH   7  11
HETATM   11  S   UNL     1      40.910  17.393  35.673  1.00  0.00    -0.089 SA
BRANCH  11  12
HETATM   12  C   UNL     1      40.942  18.989  36.476  1.00  0.00     0.021 A 
HETATM   13  C   UNL     1      40.301  20.104  35.930  1.00  0.00     0.049 A 
HETATM   14  C   UNL     1      40.351  21.332  36.591  1.00  0.00     0.018 A 
HETATM   15  C   UNL     1      41.042  21.448  37.797  1.00  0.00     0.001 A 
HETATM   16  C   UNL     1      41.684  20.336  38.343  1.00  0.00     0.001 A 
HETATM   17  C   UNL     1      41.634  19.109  37.682  1.00  0.00     0.020 A 
BRANCH  13  18
HETATM   18  C   UNL     1      39.564  20.040  34.674  1.00  0.00     0.252 C 
HETATM   19  O   UNL     1      38.377  19.676  34.661  1.00  0.00    -0.268 OA
HETATM   20  N   UNL     1      40.250  20.427  33.520  1.00  0.00    -0.361 N 
HETATM   21  C   UNL     1      39.650  20.441  32.204  1.00  0.00     0.149 C 
HETATM   22  H   UNL     1      41.209  20.751  33.605  1.00  0.00     0.162 HD
ENDBRANCH  13  18
ENDBRANCH  11  12
ENDBRANCH   7  11
BRANCH   5  23
HETATM   23  C   UNL     1      36.848  13.597  40.005  1.00  0.00     0.036 C 
HETATM   24  C   UNL     1      36.291  12.361  39.910  1.00  0.00     0.034 C 
BRANCH  24  25
HETATM   25  C   UNL     1      36.301  11.339  40.973  1.00  0.00     0.056 A 
HETATM   26  N   UNL     1      35.808  10.140  40.618  1.00  0.00    -0.261 NA
HETATM   27  C   UNL     1      35.812   9.196  41.585  1.00  0.00     0.117 A 
HETATM   28  C   UNL     1      36.282   9.408  42.873  1.00  0.00     0.019 A 
HETATM   29  C   UNL     1      36.781  10.667  43.184  1.00  0.00     0.004 A 
HETATM   30  C   UNL     1      36.793  11.663  42.215  1.00  0.00     0.031 A 
ENDBRANCH  24  25
ENDBRANCH   5  23
TORSDOF 5
