REMARK VINA RESULT:      -8.9      7.307      9.191
REMARK  5 active torsions:
REMARK  status: ('A' for Active; 'I' for Inactive)
REMARK    1  A    between atoms: S_1  and  C_11 
REMARK    2  A    between atoms: S_1  and  C_14 
REMARK       I    between atoms: N_5  and  C_21 
REMARK    3  A    between atoms: C_9  and  C_15 
REMARK    4  A    between atoms: C_16  and  C_21 
REMARK    5  A    between atoms: C_18  and  C_23 
ROOT
HETATM    1  N   UNL     1      43.918  16.136  38.313  1.00  0.00    -0.277 N 
HETATM    2  N   UNL     1      42.648  16.236  37.887  1.00  0.00    -0.174 NA
HETATM    3  C   UNL     1      42.745  15.485  40.047  1.00  0.00     0.022 A 
HETATM    4  C   UNL     1      44.046  15.691  39.601  1.00  0.00     0.064 A 
HETATM    5  C   UNL     1      41.936  15.839  38.946  1.00  0.00     0.089 A 
HETATM    6  C   UNL     1      45.169  15.457  40.397  1.00  0.00     0.051 A 
HETATM    7  C   UNL     1      44.941  14.994  41.696  1.00  0.00     0.007 A 
HETATM    8  C   UNL     1      42.532  15.021  41.356  1.00  0.00     0.017 A 
HETATM    9  C   UNL     1      43.645  14.779  42.170  1.00  0.00     0.020 A 
HETATM   10  H   UNL     1      44.659  16.388  37.670  1.00  0.00     0.189 HD
ENDROOT
BRANCH   7  11
HETATM   11  S   UNL     1      46.334  14.674  42.767  1.00  0.00    -0.089 SA
BRANCH  11  12
HETATM   12  C   UNL     1      47.164  13.368  41.872  1.00  0.00     0.021 A 
HETATM   13  C   UNL     1      48.511  13.459  41.512  1.00  0.00     0.049 A 
HETATM   14  C   UNL     1      49.119  12.416  40.813  1.00  0.00     0.018 A 
HETATM   15  C   UNL     1      48.383  11.281  40.474  1.00  0.00     0.001 A 
HETATM   16  C   UNL     1      47.038  11.188  40.832  1.00  0.00     0.001 A 
HETATM   17  C   UNL     1      46.430  12.231  41.530  1.00  0.00     0.020 A 
BRANCH  13  18
HETATM   18  C   UNL     1      49.327  14.622  41.841  1.00  0.00     0.252 C 
HETATM   19  O   UNL     1      49.398  15.580  41.057  1.00  0.00    -0.268 OA
HETATM   20  N   UNL     1      49.987  14.600  43.073  1.00  0.00    -0.361 N 
HETATM   21  C   UNL     1      50.813  15.686  43.553  1.00  0.00     0.149 C 
HETATM   22  H   UNL     1      49.856  13.800  43.685  1.00  0.00     0.162 HD
ENDBRANCH  13  18
ENDBRANCH  11  12
ENDBRANCH   7  11
BRANCH   5  23
HETATM   23  C   UNL     1      40.518  15.786  38.944  1.00  0.00     0.036 C 
HETATM   24  C   UNL     1      39.723  14.713  38.691  1.00  0.00     0.034 C 
BRANCH  24  25
HETATM   25  C   UNL     1      38.249  14.725  38.693  1.00  0.00     0.056 A 
HETATM   26  N   UNL     1      37.686  15.891  38.333  1.00  0.00    -0.261 NA
HETATM   27  C   UNL     1      36.335  15.913  38.332  1.00  0.00     0.117 A 
HETATM   28  C   UNL     1      35.542  14.829  38.675  1.00  0.00     0.019 A 
HETATM   29  C   UNL     1      36.177  13.647  39.040  1.00  0.00     0.004 A 
HETATM   30  C   UNL     1      37.567  13.587  39.052  1.00  0.00     0.031 A 
ENDBRANCH  24  25
ENDBRANCH   5  23
TORSDOF 5
