REMARK VINA RESULT:      -8.9      7.230      9.162
REMARK  5 active torsions:
REMARK  status: ('A' for Active; 'I' for Inactive)
REMARK    1  A    between atoms: S_1  and  C_11 
REMARK    2  A    between atoms: S_1  and  C_14 
REMARK       I    between atoms: N_5  and  C_21 
REMARK    3  A    between atoms: C_9  and  C_15 
REMARK    4  A    between atoms: C_16  and  C_21 
REMARK    5  A    between atoms: C_18  and  C_23 
ROOT
HETATM    1  N   UNL     1      43.927  16.158  38.213  1.00  0.00    -0.277 N 
HETATM    2  N   UNL     1      42.657  16.261  37.784  1.00  0.00    -0.174 NA
HETATM    3  C   UNL     1      42.747  15.503  39.942  1.00  0.00     0.022 A 
HETATM    4  C   UNL     1      44.049  15.708  39.501  1.00  0.00     0.064 A 
HETATM    5  C   UNL     1      41.942  15.862  38.839  1.00  0.00     0.089 A 
HETATM    6  C   UNL     1      45.170  15.470  40.299  1.00  0.00     0.051 A 
HETATM    7  C   UNL     1      44.937  15.004  41.596  1.00  0.00     0.007 A 
HETATM    8  C   UNL     1      42.529  15.034  41.248  1.00  0.00     0.017 A 
HETATM    9  C   UNL     1      43.640  14.789  42.065  1.00  0.00     0.020 A 
HETATM   10  H   UNL     1      44.669  16.412  37.574  1.00  0.00     0.189 HD
ENDROOT
BRANCH   7  11
HETATM   11  S   UNL     1      46.326  14.678  42.670  1.00  0.00    -0.089 SA
BRANCH  11  12
HETATM   12  C   UNL     1      47.130  13.340  41.799  1.00  0.00     0.021 A 
HETATM   13  C   UNL     1      48.481  13.392  41.450  1.00  0.00     0.049 A 
HETATM   14  C   UNL     1      49.068  12.324  40.770  1.00  0.00     0.018 A 
HETATM   15  C   UNL     1      48.306  11.205  40.437  1.00  0.00     0.001 A 
HETATM   16  C   UNL     1      46.956  11.151  40.784  1.00  0.00     0.001 A 
HETATM   17  C   UNL     1      46.369  12.219  41.464  1.00  0.00     0.020 A 
BRANCH  13  18
HETATM   18  C   UNL     1      49.325  14.536  41.773  1.00  0.00     0.252 C 
HETATM   19  O   UNL     1      49.426  15.485  40.979  1.00  0.00    -0.268 OA
HETATM   20  N   UNL     1      49.975  14.512  43.010  1.00  0.00    -0.361 N 
HETATM   21  C   UNL     1      50.825  15.581  43.484  1.00  0.00     0.149 C 
HETATM   22  H   UNL     1      49.820  13.722  43.630  1.00  0.00     0.162 HD
ENDBRANCH  13  18
ENDBRANCH  11  12
ENDBRANCH   7  11
BRANCH   5  23
HETATM   23  C   UNL     1      40.524  15.810  38.832  1.00  0.00     0.036 C 
HETATM   24  C   UNL     1      39.729  14.716  38.699  1.00  0.00     0.034 C 
BRANCH  24  25
HETATM   25  C   UNL     1      38.255  14.730  38.688  1.00  0.00     0.056 A 
HETATM   26  N   UNL     1      37.696  15.899  38.331  1.00  0.00    -0.261 NA
HETATM   27  C   UNL     1      36.345  15.923  38.319  1.00  0.00     0.117 A 
HETATM   28  C   UNL     1      35.548  14.837  38.647  1.00  0.00     0.019 A 
HETATM   29  C   UNL     1      36.179  13.652  39.008  1.00  0.00     0.004 A 
HETATM   30  C   UNL     1      37.568  13.590  39.033  1.00  0.00     0.031 A 
ENDBRANCH  24  25
ENDBRANCH   5  23
TORSDOF 5
