REMARK VINA RESULT:      -8.2     11.596     18.519
REMARK  5 active torsions:
REMARK  status: ('A' for Active; 'I' for Inactive)
REMARK    1  A    between atoms: S_1  and  C_11 
REMARK    2  A    between atoms: S_1  and  C_14 
REMARK       I    between atoms: N_5  and  C_21 
REMARK    3  A    between atoms: C_9  and  C_15 
REMARK    4  A    between atoms: C_16  and  C_21 
REMARK    5  A    between atoms: C_18  and  C_23 
ROOT
HETATM    1  N   UNL     1      34.036   8.319  50.782  1.00  0.00    -0.277 N 
HETATM    2  N   UNL     1      33.998   8.842  49.545  1.00  0.00    -0.174 NA
HETATM    3  C   UNL     1      34.532   6.617  49.491  1.00  0.00     0.022 A 
HETATM    4  C   UNL     1      34.352   6.987  50.819  1.00  0.00     0.064 A 
HETATM    5  C   UNL     1      34.300   7.804  48.762  1.00  0.00     0.089 A 
HETATM    6  C   UNL     1      34.489   6.093  51.883  1.00  0.00     0.051 A 
HETATM    7  C   UNL     1      34.826   4.774  51.564  1.00  0.00     0.007 A 
HETATM    8  C   UNL     1      34.869   5.287  49.186  1.00  0.00     0.017 A 
HETATM    9  C   UNL     1      35.013   4.376  50.239  1.00  0.00     0.020 A 
HETATM   10  H   UNL     1      33.837   8.928  51.565  1.00  0.00     0.189 HD
ENDROOT
BRANCH   7  11
HETATM   11  S   UNL     1      35.018   3.579  52.878  1.00  0.00    -0.089 SA
BRANCH  11  12
HETATM   12  C   UNL     1      36.575   4.095  53.587  1.00  0.00     0.021 A 
HETATM   13  C   UNL     1      36.801   4.080  54.966  1.00  0.00     0.049 A 
HETATM   14  C   UNL     1      38.032   4.491  55.476  1.00  0.00     0.018 A 
HETATM   15  C   UNL     1      39.040   4.917  54.612  1.00  0.00     0.001 A 
HETATM   16  C   UNL     1      38.817   4.933  53.235  1.00  0.00     0.001 A 
HETATM   17  C   UNL     1      37.586   4.522  52.724  1.00  0.00     0.020 A 
BRANCH  13  18
HETATM   18  C   UNL     1      35.784   3.644  55.915  1.00  0.00     0.252 C 
HETATM   19  O   UNL     1      35.693   2.448  56.232  1.00  0.00    -0.268 OA
HETATM   20  N   UNL     1      34.956   4.634  56.451  1.00  0.00    -0.361 N 
HETATM   21  C   UNL     1      33.917   4.365  57.421  1.00  0.00     0.149 C 
HETATM   22  H   UNL     1      35.107   5.601  56.178  1.00  0.00     0.162 HD
ENDBRANCH  13  18
ENDBRANCH  11  12
ENDBRANCH   7  11
BRANCH   5  23
HETATM   23  C   UNL     1      34.375   7.902  47.348  1.00  0.00     0.036 C 
HETATM   24  C   UNL     1      34.639   9.007  46.600  1.00  0.00     0.034 C 
BRANCH  24  25
HETATM   25  C   UNL     1      34.691   9.046  45.128  1.00  0.00     0.056 A 
HETATM   26  N   UNL     1      35.503   9.982  44.608  1.00  0.00    -0.261 NA
HETATM   27  C   UNL     1      35.557  10.026  43.259  1.00  0.00     0.117 A 
HETATM   28  C   UNL     1      34.837   9.182  42.426  1.00  0.00     0.019 A 
HETATM   29  C   UNL     1      34.013   8.232  43.018  1.00  0.00     0.004 A 
HETATM   30  C   UNL     1      33.932   8.157  44.404  1.00  0.00     0.031 A 
ENDBRANCH  24  25
ENDBRANCH   5  23
TORSDOF 5
