REMARK VINA RESULT:      -8.9      4.454     11.174
REMARK  5 active torsions:
REMARK  status: ('A' for Active; 'I' for Inactive)
REMARK    1  A    between atoms: S_1  and  C_11 
REMARK    2  A    between atoms: S_1  and  C_14 
REMARK       I    between atoms: N_5  and  C_21 
REMARK    3  A    between atoms: C_9  and  C_15 
REMARK    4  A    between atoms: C_16  and  C_21 
REMARK    5  A    between atoms: C_18  and  C_23 
ROOT
HETATM    1  N   UNL     1      33.629  13.472  39.517  1.00  0.00    -0.277 N 
HETATM    2  N   UNL     1      34.074  14.275  38.535  1.00  0.00    -0.174 NA
HETATM    3  C   UNL     1      35.810  13.331  39.691  1.00  0.00     0.022 A 
HETATM    4  C   UNL     1      34.621  12.875  40.248  1.00  0.00     0.064 A 
HETATM    5  C   UNL     1      35.402  14.186  38.644  1.00  0.00     0.089 A 
HETATM    6  C   UNL     1      34.575  11.992  41.328  1.00  0.00     0.051 A 
HETATM    7  C   UNL     1      35.800  11.565  41.851  1.00  0.00     0.007 A 
HETATM    8  C   UNL     1      37.033  12.893  40.227  1.00  0.00     0.017 A 
HETATM    9  C   UNL     1      37.010  12.007  41.311  1.00  0.00     0.020 A 
HETATM   10  H   UNL     1      32.628  13.374  39.637  1.00  0.00     0.189 HD
ENDROOT
BRANCH   7  11
HETATM   11  S   UNL     1      35.815  10.435  43.234  1.00  0.00    -0.089 SA
BRANCH  11  12
HETATM   12  C   UNL     1      35.085   8.980  42.497  1.00  0.00     0.021 A 
HETATM   13  C   UNL     1      34.269   8.112  43.227  1.00  0.00     0.049 A 
HETATM   14  C   UNL     1      33.719   6.987  42.612  1.00  0.00     0.018 A 
HETATM   15  C   UNL     1      33.984   6.726  41.268  1.00  0.00     0.001 A 
HETATM   16  C   UNL     1      34.799   7.591  40.537  1.00  0.00     0.001 A 
HETATM   17  C   UNL     1      35.349   8.716  41.152  1.00  0.00     0.020 A 
BRANCH  13  18
HETATM   18  C   UNL     1      33.958   8.336  44.634  1.00  0.00     0.252 C 
HETATM   19  O   UNL     1      32.829   8.724  44.973  1.00  0.00    -0.268 OA
HETATM   20  N   UNL     1      34.975   8.070  45.555  1.00  0.00    -0.361 N 
HETATM   21  C   UNL     1      34.815   8.219  46.984  1.00  0.00     0.149 C 
HETATM   22  H   UNL     1      35.865   7.718  45.214  1.00  0.00     0.162 HD
ENDBRANCH  13  18
ENDBRANCH  11  12
ENDBRANCH   7  11
BRANCH   5  23
HETATM   23  C   UNL     1      36.293  14.885  37.789  1.00  0.00     0.036 C 
HETATM   24  C   UNL     1      37.363  15.647  38.140  1.00  0.00     0.034 C 
BRANCH  24  25
HETATM   25  C   UNL     1      38.246  16.361  37.200  1.00  0.00     0.056 A 
HETATM   26  N   UNL     1      37.617  17.150  36.312  1.00  0.00    -0.261 NA
HETATM   27  C   UNL     1      38.418  17.808  35.445  1.00  0.00     0.117 A 
HETATM   28  C   UNL     1      39.801  17.704  35.435  1.00  0.00     0.019 A 
HETATM   29  C   UNL     1      40.398  16.874  36.376  1.00  0.00     0.004 A 
HETATM   30  C   UNL     1      39.606  16.180  37.284  1.00  0.00     0.031 A 
ENDBRANCH  24  25
ENDBRANCH   5  23
TORSDOF 5
