REMARK VINA RESULT:      -8.7     10.628     16.815
REMARK  5 active torsions:
REMARK  status: ('A' for Active; 'I' for Inactive)
REMARK    1  A    between atoms: S_1  and  C_11 
REMARK    2  A    between atoms: S_1  and  C_14 
REMARK       I    between atoms: N_5  and  C_21 
REMARK    3  A    between atoms: C_9  and  C_15 
REMARK    4  A    between atoms: C_16  and  C_21 
REMARK    5  A    between atoms: C_18  and  C_23 
ROOT
HETATM    1  N   UNL     1      33.864   9.311  49.470  1.00  0.00    -0.277 N 
HETATM    2  N   UNL     1      33.621   9.587  48.177  1.00  0.00    -0.174 NA
HETATM    3  C   UNL     1      34.915   7.712  48.400  1.00  0.00     0.022 A 
HETATM    4  C   UNL     1      34.636   8.198  49.671  1.00  0.00     0.064 A 
HETATM    5  C   UNL     1      34.261   8.610  47.529  1.00  0.00     0.089 A 
HETATM    6  C   UNL     1      35.102   7.590  50.839  1.00  0.00     0.051 A 
HETATM    7  C   UNL     1      35.883   6.441  50.686  1.00  0.00     0.007 A 
HETATM    8  C   UNL     1      35.701   6.555  48.262  1.00  0.00     0.017 A 
HETATM    9  C   UNL     1      36.179   5.930  49.421  1.00  0.00     0.020 A 
HETATM   10  H   UNL     1      33.473   9.928  50.171  1.00  0.00     0.189 HD
ENDROOT
BRANCH   7  11
HETATM   11  S   UNL     1      36.513   5.613  52.138  1.00  0.00    -0.089 SA
BRANCH  11  12
HETATM   12  C   UNL     1      36.390   3.901  51.640  1.00  0.00     0.021 A 
HETATM   13  C   UNL     1      37.514   3.153  51.279  1.00  0.00     0.049 A 
HETATM   14  C   UNL     1      37.372   1.820  50.896  1.00  0.00     0.018 A 
HETATM   15  C   UNL     1      36.109   1.231  50.872  1.00  0.00     0.001 A 
HETATM   16  C   UNL     1      34.985   1.975  51.231  1.00  0.00     0.001 A 
HETATM   17  C   UNL     1      35.126   3.309  51.614  1.00  0.00     0.020 A 
BRANCH  13  18
HETATM   18  C   UNL     1      38.858   3.718  51.286  1.00  0.00     0.252 C 
HETATM   19  O   UNL     1      39.511   3.771  52.340  1.00  0.00    -0.268 OA
HETATM   20  N   UNL     1      39.363   4.161  50.060  1.00  0.00    -0.361 N 
HETATM   21  C   UNL     1      40.686   4.723  49.900  1.00  0.00     0.149 C 
HETATM   22  H   UNL     1      38.791   4.055  49.227  1.00  0.00     0.162 HD
ENDBRANCH  13  18
ENDBRANCH  11  12
ENDBRANCH   7  11
BRANCH   5  23
HETATM   23  C   UNL     1      34.273   8.505  46.113  1.00  0.00     0.036 C 
HETATM   24  C   UNL     1      34.808   9.374  45.215  1.00  0.00     0.034 C 
BRANCH  24  25
HETATM   25  C   UNL     1      34.775   9.212  43.751  1.00  0.00     0.056 A 
HETATM   26  N   UNL     1      34.906  10.349  43.046  1.00  0.00    -0.261 NA
HETATM   27  C   UNL     1      34.876  10.211  41.702  1.00  0.00     0.117 A 
HETATM   28  C   UNL     1      34.723   8.996  41.051  1.00  0.00     0.019 A 
HETATM   29  C   UNL     1      34.593   7.852  41.829  1.00  0.00     0.004 A 
HETATM   30  C   UNL     1      34.618   7.955  43.216  1.00  0.00     0.031 A 
ENDBRANCH  24  25
ENDBRANCH   5  23
TORSDOF 5
