REMARK  5 active torsions:
REMARK  status: ('A' for Active; 'I' for Inactive)
REMARK    1  A    between atoms: S_1  and  C_11 
REMARK    2  A    between atoms: S_1  and  C_14 
REMARK       I    between atoms: N_5  and  C_21 
REMARK    3  A    between atoms: C_9  and  C_15 
REMARK    4  A    between atoms: C_16  and  C_21 
REMARK    5  A    between atoms: C_18  and  C_23 
ROOT
HETATM    1  N   UNL     1       0.526  -1.630  -1.191  1.00  0.00    -0.277 N 
HETATM    2  N   UNL     1       1.862  -1.516  -1.281  1.00  0.00    -0.174 NA
HETATM    3  C   UNL     1       1.025  -0.198   0.393  1.00  0.00     0.022 A 
HETATM    4  C   UNL     1      -0.038  -0.864  -0.206  1.00  0.00     0.064 A 
HETATM    5  C   UNL     1       2.162  -0.644  -0.315  1.00  0.00     0.089 A 
HETATM    6  C   UNL     1      -1.364  -0.704   0.202  1.00  0.00     0.051 A 
HETATM    7  C   UNL     1      -1.599   0.174   1.264  1.00  0.00     0.007 A 
HETATM    8  C   UNL     1       0.773   0.681   1.460  1.00  0.00     0.017 A 
HETATM    9  C   UNL     1      -0.550   0.856   1.884  1.00  0.00     0.020 A 
HETATM   10  H   UNL     1       0.055  -2.251  -1.837  1.00  0.00     0.189 HD
ENDROOT
BRANCH   7  11
HETATM   11  S   UNL     1      -3.272   0.426   1.836  1.00  0.00    -0.089 SA
BRANCH  11  12
HETATM   12  C   UNL     1      -4.051   1.058   0.357  1.00  0.00     0.021 A 
HETATM   13  C   UNL     1      -5.128   0.406  -0.248  1.00  0.00     0.049 A 
HETATM   14  C   UNL     1      -5.706   0.935  -1.402  1.00  0.00     0.018 A 
HETATM   15  C   UNL     1      -5.209   2.115  -1.954  1.00  0.00     0.001 A 
HETATM   16  C   UNL     1      -4.133   2.768  -1.352  1.00  0.00     0.001 A 
HETATM   17  C   UNL     1      -3.555   2.239  -0.198  1.00  0.00     0.020 A 
BRANCH  13  18
HETATM   18  C   UNL     1      -5.688  -0.830   0.286  1.00  0.00     0.252 C 
HETATM   19  O   UNL     1      -6.623  -0.794   1.101  1.00  0.00    -0.268 OA
HETATM   20  N   UNL     1      -5.138  -2.026  -0.183  1.00  0.00    -0.361 N 
HETATM   21  C   UNL     1      -5.600  -3.332   0.232  1.00  0.00     0.149 C 
HETATM   22  H   UNL     1      -4.399  -1.986  -0.879  1.00  0.00     0.162 HD
ENDBRANCH  13  18
ENDBRANCH  11  12
ENDBRANCH   7  11
BRANCH   5  23
HETATM   23  C   UNL     1       3.490  -0.222  -0.044  1.00  0.00     0.036 C 
HETATM   24  C   UNL     1       4.635  -0.622  -0.658  1.00  0.00     0.034 C 
BRANCH  24  25
HETATM   25  C   UNL     1       5.991  -0.153  -0.320  1.00  0.00     0.056 A 
HETATM   26  N   UNL     1       6.051   0.770   0.655  1.00  0.00    -0.261 NA
HETATM   27  C   UNL     1       7.290   1.207   0.971  1.00  0.00     0.117 A 
HETATM   28  C   UNL     1       8.450   0.761   0.356  1.00  0.00     0.019 A 
HETATM   29  C   UNL     1       8.329  -0.195  -0.646  1.00  0.00     0.004 A 
HETATM   30  C   UNL     1       7.070  -0.668  -0.999  1.00  0.00     0.031 A 
ENDBRANCH  24  25
ENDBRANCH   5  23
TORSDOF 5
