REMARK VINA RESULT:      -7.8      7.092      8.781
REMARK  5 active torsions:
REMARK  status: ('A' for Active; 'I' for Inactive)
REMARK    1  A    between atoms: S_1  and  C_11 
REMARK    2  A    between atoms: S_1  and  C_14 
REMARK       I    between atoms: N_5  and  C_21 
REMARK    3  A    between atoms: C_9  and  C_15 
REMARK    4  A    between atoms: C_16  and  C_21 
REMARK    5  A    between atoms: C_18  and  C_23 
ROOT
HETATM    1  N   UNL     1      44.153  16.320  38.738  1.00  0.00    -0.277 N 
HETATM    2  N   UNL     1      42.870  16.259  38.345  1.00  0.00    -0.174 NA
HETATM    3  C   UNL     1      43.174  15.217  40.360  1.00  0.00     0.022 A 
HETATM    4  C   UNL     1      44.402  15.712  39.939  1.00  0.00     0.064 A 
HETATM    5  C   UNL     1      42.276  15.588  39.335  1.00  0.00     0.089 A 
HETATM    6  C   UNL     1      45.578  15.560  40.677  1.00  0.00     0.051 A 
HETATM    7  C   UNL     1      45.481  14.873  41.891  1.00  0.00     0.007 A 
HETATM    8  C   UNL     1      43.091  14.529  41.583  1.00  0.00     0.017 A 
HETATM    9  C   UNL     1      44.259  14.365  42.338  1.00  0.00     0.020 A 
HETATM   10  H   UNL     1      44.815  16.792  38.135  1.00  0.00     0.189 HD
ENDROOT
BRANCH   7  11
HETATM   11  S   UNL     1      46.946  14.642  42.885  1.00  0.00    -0.089 SA
BRANCH  11  12
HETATM   12  C   UNL     1      48.229  14.800  41.651  1.00  0.00     0.021 A 
HETATM   13  C   UNL     1      48.646  13.717  40.874  1.00  0.00     0.049 A 
HETATM   14  C   UNL     1      49.651  13.885  39.922  1.00  0.00     0.018 A 
HETATM   15  C   UNL     1      50.242  15.136  39.744  1.00  0.00     0.001 A 
HETATM   16  C   UNL     1      49.828  16.220  40.519  1.00  0.00     0.001 A 
HETATM   17  C   UNL     1      48.822  16.051  41.471  1.00  0.00     0.020 A 
BRANCH  13  18
HETATM   18  C   UNL     1      48.063  12.388  41.017  1.00  0.00     0.252 C 
HETATM   19  O   UNL     1      48.570  11.561  41.792  1.00  0.00    -0.268 OA
HETATM   20  N   UNL     1      46.915  12.118  40.267  1.00  0.00    -0.361 N 
HETATM   21  C   UNL     1      46.208  10.858  40.318  1.00  0.00     0.149 C 
HETATM   22  H   UNL     1      46.530  12.852  39.681  1.00  0.00     0.162 HD
ENDBRANCH  13  18
ENDBRANCH  11  12
ENDBRANCH   7  11
BRANCH   5  23
HETATM   23  C   UNL     1      40.889  15.288  39.339  1.00  0.00     0.036 C 
HETATM   24  C   UNL     1      39.999  15.439  38.323  1.00  0.00     0.034 C 
BRANCH  24  25
HETATM   25  C   UNL     1      38.562  15.119  38.394  1.00  0.00     0.056 A 
HETATM   26  N   UNL     1      38.267  13.928  38.944  1.00  0.00    -0.261 NA
HETATM   27  C   UNL     1      36.952  13.626  39.013  1.00  0.00     0.117 A 
HETATM   28  C   UNL     1      35.940  14.457  38.559  1.00  0.00     0.019 A 
HETATM   29  C   UNL     1      36.302  15.677  38.000  1.00  0.00     0.004 A 
HETATM   30  C   UNL     1      37.646  16.023  37.911  1.00  0.00     0.031 A 
ENDBRANCH  24  25
ENDBRANCH   5  23
TORSDOF 5
