REMARK VINA RESULT:      -8.8     12.875     14.603
REMARK  5 active torsions:
REMARK  status: ('A' for Active; 'I' for Inactive)
REMARK    1  A    between atoms: S_1  and  C_11 
REMARK    2  A    between atoms: S_1  and  C_14 
REMARK       I    between atoms: N_5  and  C_21 
REMARK    3  A    between atoms: C_9  and  C_15 
REMARK    4  A    between atoms: C_16  and  C_21 
REMARK    5  A    between atoms: C_18  and  C_23 
ROOT
HETATM    1  N   UNL     1      33.779   9.382  49.408  1.00  0.00    -0.277 N 
HETATM    2  N   UNL     1      33.545   9.653  48.113  1.00  0.00    -0.174 NA
HETATM    3  C   UNL     1      34.834   7.776  48.351  1.00  0.00     0.022 A 
HETATM    4  C   UNL     1      34.548   8.268  49.619  1.00  0.00     0.064 A 
HETATM    5  C   UNL     1      34.188   8.673  47.473  1.00  0.00     0.089 A 
HETATM    6  C   UNL     1      35.005   7.664  50.792  1.00  0.00     0.051 A 
HETATM    7  C   UNL     1      35.784   6.512  50.650  1.00  0.00     0.007 A 
HETATM    8  C   UNL     1      35.619   6.617  48.224  1.00  0.00     0.017 A 
HETATM    9  C   UNL     1      36.087   5.996  49.388  1.00  0.00     0.020 A 
HETATM   10  H   UNL     1      33.385  10.002  50.104  1.00  0.00     0.189 HD
ENDROOT
BRANCH   7  11
HETATM   11  S   UNL     1      36.402   5.689  52.109  1.00  0.00    -0.089 SA
BRANCH  11  12
HETATM   12  C   UNL     1      36.334   3.978  51.595  1.00  0.00     0.021 A 
HETATM   13  C   UNL     1      37.471   3.290  51.164  1.00  0.00     0.049 A 
HETATM   14  C   UNL     1      37.372   1.956  50.771  1.00  0.00     0.018 A 
HETATM   15  C   UNL     1      36.139   1.306  50.808  1.00  0.00     0.001 A 
HETATM   16  C   UNL     1      35.002   1.991  51.238  1.00  0.00     0.001 A 
HETATM   17  C   UNL     1      35.101   3.326  51.631  1.00  0.00     0.020 A 
BRANCH  13  18
HETATM   18  C   UNL     1      38.785   3.920  51.105  1.00  0.00     0.252 C 
HETATM   19  O   UNL     1      39.182   4.447  50.054  1.00  0.00    -0.268 OA
HETATM   20  N   UNL     1      39.540   3.915  52.281  1.00  0.00    -0.361 N 
HETATM   21  C   UNL     1      40.850   4.518  52.390  1.00  0.00     0.149 C 
HETATM   22  H   UNL     1      39.141   3.499  53.118  1.00  0.00     0.162 HD
ENDBRANCH  13  18
ENDBRANCH  11  12
ENDBRANCH   7  11
BRANCH   5  23
HETATM   23  C   UNL     1      34.209   8.561  46.058  1.00  0.00     0.036 C 
HETATM   24  C   UNL     1      34.819   9.384  45.164  1.00  0.00     0.034 C 
BRANCH  24  25
HETATM   25  C   UNL     1      34.793   9.220  43.699  1.00  0.00     0.056 A 
HETATM   26  N   UNL     1      34.967  10.350  42.994  1.00  0.00    -0.261 NA
HETATM   27  C   UNL     1      34.943  10.210  41.650  1.00  0.00     0.117 A 
HETATM   28  C   UNL     1      34.754   9.000  41.000  1.00  0.00     0.019 A 
HETATM   29  C   UNL     1      34.580   7.863  41.780  1.00  0.00     0.004 A 
HETATM   30  C   UNL     1      34.597   7.968  43.166  1.00  0.00     0.031 A 
ENDBRANCH  24  25
ENDBRANCH   5  23
TORSDOF 5
