REMARK VINA RESULT:      -8.4     11.682     18.238
REMARK  5 active torsions:
REMARK  status: ('A' for Active; 'I' for Inactive)
REMARK    1  A    between atoms: S_1  and  C_11 
REMARK    2  A    between atoms: S_1  and  C_14 
REMARK       I    between atoms: N_5  and  C_21 
REMARK    3  A    between atoms: C_9  and  C_15 
REMARK    4  A    between atoms: C_16  and  C_21 
REMARK    5  A    between atoms: C_18  and  C_23 
ROOT
HETATM    1  N   UNL     1      33.777   8.929  50.858  1.00  0.00    -0.277 N 
HETATM    2  N   UNL     1      33.842   9.619  49.707  1.00  0.00    -0.174 NA
HETATM    3  C   UNL     1      34.606   7.478  49.439  1.00  0.00     0.022 A 
HETATM    4  C   UNL     1      34.222   7.638  50.765  1.00  0.00     0.064 A 
HETATM    5  C   UNL     1      34.346   8.732  48.845  1.00  0.00     0.089 A 
HETATM    6  C   UNL     1      34.315   6.616  51.713  1.00  0.00     0.051 A 
HETATM    7  C   UNL     1      34.823   5.390  51.276  1.00  0.00     0.007 A 
HETATM    8  C   UNL     1      35.114   6.239  49.014  1.00  0.00     0.017 A 
HETATM    9  C   UNL     1      35.217   5.202  49.949  1.00  0.00     0.020 A 
HETATM   10  H   UNL     1      33.419   9.402  51.679  1.00  0.00     0.189 HD
ENDROOT
BRANCH   7  11
HETATM   11  S   UNL     1      34.971   4.041  52.437  1.00  0.00    -0.089 SA
BRANCH  11  12
HETATM   12  C   UNL     1      36.526   4.433  53.226  1.00  0.00     0.021 A 
HETATM   13  C   UNL     1      36.718   4.273  54.600  1.00  0.00     0.049 A 
HETATM   14  C   UNL     1      37.949   4.592  55.175  1.00  0.00     0.018 A 
HETATM   15  C   UNL     1      38.988   5.072  54.378  1.00  0.00     0.001 A 
HETATM   16  C   UNL     1      38.798   5.233  53.006  1.00  0.00     0.001 A 
HETATM   17  C   UNL     1      37.567   4.914  52.431  1.00  0.00     0.020 A 
BRANCH  13  18
HETATM   18  C   UNL     1      35.667   3.775  55.480  1.00  0.00     0.252 C 
HETATM   19  O   UNL     1      35.483   2.555  55.609  1.00  0.00    -0.268 OA
HETATM   20  N   UNL     1      34.917   4.731  56.170  1.00  0.00    -0.361 N 
HETATM   21  C   UNL     1      33.858   4.396  57.096  1.00  0.00     0.149 C 
HETATM   22  H   UNL     1      35.144   5.714  56.048  1.00  0.00     0.162 HD
ENDBRANCH  13  18
ENDBRANCH  11  12
ENDBRANCH   7  11
BRANCH   5  23
HETATM   23  C   UNL     1      34.589   9.037  47.480  1.00  0.00     0.036 C 
HETATM   24  C   UNL     1      34.163   8.356  46.384  1.00  0.00     0.034 C 
BRANCH  24  25
HETATM   25  C   UNL     1      34.461   8.719  44.986  1.00  0.00     0.056 A 
HETATM   26  N   UNL     1      35.305   9.753  44.831  1.00  0.00    -0.261 NA
HETATM   27  C   UNL     1      35.583  10.094  43.554  1.00  0.00     0.117 A 
HETATM   28  C   UNL     1      35.055   9.449  42.446  1.00  0.00     0.019 A 
HETATM   29  C   UNL     1      34.188   8.385  42.665  1.00  0.00     0.004 A 
HETATM   30  C   UNL     1      33.877   8.005  43.966  1.00  0.00     0.031 A 
ENDBRANCH  24  25
ENDBRANCH   5  23
TORSDOF 5
