REMARK VINA RESULT:      -7.8      5.666      7.537
REMARK  5 active torsions:
REMARK  status: ('A' for Active; 'I' for Inactive)
REMARK    1  A    between atoms: S_1  and  C_11 
REMARK    2  A    between atoms: S_1  and  C_14 
REMARK       I    between atoms: N_5  and  C_21 
REMARK    3  A    between atoms: C_9  and  C_15 
REMARK    4  A    between atoms: C_16  and  C_21 
REMARK    5  A    between atoms: C_18  and  C_23 
ROOT
HETATM    1  N   UNL     1      42.556  16.632  38.979  1.00  0.00    -0.277 N 
HETATM    2  N   UNL     1      41.706  15.722  39.484  1.00  0.00    -0.174 NA
HETATM    3  C   UNL     1      40.795  16.805  37.684  1.00  0.00     0.022 A 
HETATM    4  C   UNL     1      42.070  17.317  37.898  1.00  0.00     0.064 A 
HETATM    5  C   UNL     1      40.635  15.830  38.693  1.00  0.00     0.089 A 
HETATM    6  C   UNL     1      42.630  18.321  37.105  1.00  0.00     0.051 A 
HETATM    7  C   UNL     1      41.846  18.812  36.057  1.00  0.00     0.007 A 
HETATM    8  C   UNL     1      40.020  17.309  36.626  1.00  0.00     0.017 A 
HETATM    9  C   UNL     1      40.563  18.316  35.820  1.00  0.00     0.020 A 
HETATM   10  H   UNL     1      43.460  16.739  39.423  1.00  0.00     0.189 HD
ENDROOT
BRANCH   7  11
HETATM   11  S   UNL     1      42.501  20.098  35.004  1.00  0.00    -0.089 SA
BRANCH  11  12
HETATM   12  C   UNL     1      42.470  21.500  36.111  1.00  0.00     0.021 A 
HETATM   13  C   UNL     1      43.640  22.134  36.535  1.00  0.00     0.049 A 
HETATM   14  C   UNL     1      43.569  23.226  37.400  1.00  0.00     0.018 A 
HETATM   15  C   UNL     1      42.330  23.686  37.844  1.00  0.00     0.001 A 
HETATM   16  C   UNL     1      41.160  23.054  37.423  1.00  0.00     0.001 A 
HETATM   17  C   UNL     1      41.231  21.962  36.558  1.00  0.00     0.020 A 
BRANCH  13  18
HETATM   18  C   UNL     1      44.962  21.696  36.102  1.00  0.00     0.252 C 
HETATM   19  O   UNL     1      45.472  22.165  35.073  1.00  0.00    -0.268 OA
HETATM   20  N   UNL     1      45.612  20.759  36.910  1.00  0.00    -0.361 N 
HETATM   21  C   UNL     1      46.934  20.246  36.629  1.00  0.00     0.149 C 
HETATM   22  H   UNL     1      45.154  20.444  37.760  1.00  0.00     0.162 HD
ENDBRANCH  13  18
ENDBRANCH  11  12
ENDBRANCH   7  11
BRANCH   5  23
HETATM   23  C   UNL     1      39.469  15.039  38.863  1.00  0.00     0.036 C 
HETATM   24  C   UNL     1      38.172  15.445  38.829  1.00  0.00     0.034 C 
BRANCH  24  25
HETATM   25  C   UNL     1      37.001  14.572  39.027  1.00  0.00     0.056 A 
HETATM   26  N   UNL     1      35.823  15.102  38.656  1.00  0.00    -0.261 NA
HETATM   27  C   UNL     1      34.743  14.310  38.835  1.00  0.00     0.117 A 
HETATM   28  C   UNL     1      34.800  13.029  39.363  1.00  0.00     0.019 A 
HETATM   29  C   UNL     1      36.045  12.531  39.729  1.00  0.00     0.004 A 
HETATM   30  C   UNL     1      37.179  13.318  39.560  1.00  0.00     0.031 A 
ENDBRANCH  24  25
ENDBRANCH   5  23
TORSDOF 5
