REMARK VINA RESULT:      -8.8      7.045      8.972
REMARK  5 active torsions:
REMARK  status: ('A' for Active; 'I' for Inactive)
REMARK    1  A    between atoms: S_1  and  C_11 
REMARK    2  A    between atoms: S_1  and  C_14 
REMARK       I    between atoms: N_5  and  C_21 
REMARK    3  A    between atoms: C_9  and  C_15 
REMARK    4  A    between atoms: C_16  and  C_21 
REMARK    5  A    between atoms: C_18  and  C_23 
ROOT
HETATM    1  N   UNL     1      43.936  16.144  38.322  1.00  0.00    -0.277 N 
HETATM    2  N   UNL     1      42.660  16.230  37.911  1.00  0.00    -0.174 NA
HETATM    3  C   UNL     1      42.790  15.488  40.072  1.00  0.00     0.022 A 
HETATM    4  C   UNL     1      44.083  15.703  39.610  1.00  0.00     0.064 A 
HETATM    5  C   UNL     1      41.965  15.831  38.979  1.00  0.00     0.089 A 
HETATM    6  C   UNL     1      45.218  15.482  40.393  1.00  0.00     0.051 A 
HETATM    7  C   UNL     1      45.010  15.022  41.696  1.00  0.00     0.007 A 
HETATM    8  C   UNL     1      42.596  15.026  41.385  1.00  0.00     0.017 A 
HETATM    9  C   UNL     1      43.721  14.797  42.186  1.00  0.00     0.020 A 
HETATM   10  H   UNL     1      44.666  16.400  37.669  1.00  0.00     0.189 HD
ENDROOT
BRANCH   7  11
HETATM   11  S   UNL     1      46.418  14.718  42.752  1.00  0.00    -0.089 SA
BRANCH  11  12
HETATM   12  C   UNL     1      47.228  13.391  41.872  1.00  0.00     0.021 A 
HETATM   13  C   UNL     1      48.578  13.454  41.517  1.00  0.00     0.049 A 
HETATM   14  C   UNL     1      49.170  12.394  40.830  1.00  0.00     0.018 A 
HETATM   15  C   UNL     1      48.416  11.270  40.496  1.00  0.00     0.001 A 
HETATM   16  C   UNL     1      47.067  11.205  40.848  1.00  0.00     0.001 A 
HETATM   17  C   UNL     1      46.475  12.265  41.535  1.00  0.00     0.020 A 
BRANCH  13  18
HETATM   18  C   UNL     1      49.414  14.604  41.841  1.00  0.00     0.252 C 
HETATM   19  O   UNL     1      49.588  15.507  41.009  1.00  0.00    -0.268 OA
HETATM   20  N   UNL     1      49.972  14.637  43.122  1.00  0.00    -0.361 N 
HETATM   21  C   UNL     1      50.802  15.720  43.602  1.00  0.00     0.149 C 
HETATM   22  H   UNL     1      49.759  13.883  43.769  1.00  0.00     0.162 HD
ENDBRANCH  13  18
ENDBRANCH  11  12
ENDBRANCH   7  11
BRANCH   5  23
HETATM   23  C   UNL     1      40.547  15.765  38.995  1.00  0.00     0.036 C 
HETATM   24  C   UNL     1      39.756  14.715  38.648  1.00  0.00     0.034 C 
BRANCH  24  25
HETATM   25  C   UNL     1      38.282  14.713  38.674  1.00  0.00     0.056 A 
HETATM   26  N   UNL     1      37.703  15.880  38.342  1.00  0.00    -0.261 NA
HETATM   27  C   UNL     1      36.352  15.889  38.365  1.00  0.00     0.117 A 
HETATM   28  C   UNL     1      35.575  14.791  38.702  1.00  0.00     0.019 A 
HETATM   29  C   UNL     1      36.227  13.610  39.037  1.00  0.00     0.004 A 
HETATM   30  C   UNL     1      37.616  13.563  39.025  1.00  0.00     0.031 A 
ENDBRANCH  24  25
ENDBRANCH   5  23
TORSDOF 5
