REMARK VINA RESULT:      -7.6      1.910      2.853
REMARK  5 active torsions:
REMARK  status: ('A' for Active; 'I' for Inactive)
REMARK    1  A    between atoms: S_1  and  C_11 
REMARK    2  A    between atoms: S_1  and  C_14 
REMARK       I    between atoms: N_5  and  C_21 
REMARK    3  A    between atoms: C_9  and  C_15 
REMARK    4  A    between atoms: C_16  and  C_21 
REMARK    5  A    between atoms: C_18  and  C_23 
ROOT
HETATM    1  N   UNL     1      45.338  16.240  38.439  1.00  0.00    -0.277 N 
HETATM    2  N   UNL     1      44.170  16.742  38.004  1.00  0.00    -0.174 NA
HETATM    3  C   UNL     1      43.839  15.055  39.515  1.00  0.00     0.022 A 
HETATM    4  C   UNL     1      45.208  15.223  39.348  1.00  0.00     0.064 A 
HETATM    5  C   UNL     1      43.260  16.019  38.662  1.00  0.00     0.089 A 
HETATM    6  C   UNL     1      46.158  14.455  40.024  1.00  0.00     0.051 A 
HETATM    7  C   UNL     1      45.677  13.479  40.901  1.00  0.00     0.007 A 
HETATM    8  C   UNL     1      43.370  14.070  40.402  1.00  0.00     0.017 A 
HETATM    9  C   UNL     1      44.306  13.288  41.089  1.00  0.00     0.020 A 
HETATM   10  H   UNL     1      46.194  16.636  38.073  1.00  0.00     0.189 HD
ENDROOT
BRANCH   7  11
HETATM   11  S   UNL     1      46.838  12.460  41.798  1.00  0.00    -0.089 SA
BRANCH  11  12
HETATM   12  C   UNL     1      48.192  13.602  42.030  1.00  0.00     0.021 A 
HETATM   13  C   UNL     1      48.077  14.728  42.848  1.00  0.00     0.049 A 
HETATM   14  C   UNL     1      49.161  15.594  43.001  1.00  0.00     0.018 A 
HETATM   15  C   UNL     1      50.359  15.336  42.337  1.00  0.00     0.001 A 
HETATM   16  C   UNL     1      50.477  14.212  41.519  1.00  0.00     0.001 A 
HETATM   17  C   UNL     1      49.393  13.347  41.366  1.00  0.00     0.020 A 
BRANCH  13  18
HETATM   18  C   UNL     1      46.848  15.046  43.566  1.00  0.00     0.252 C 
HETATM   19  O   UNL     1      46.636  14.565  44.690  1.00  0.00    -0.268 OA
HETATM   20  N   UNL     1      45.959  15.922  42.937  1.00  0.00    -0.361 N 
HETATM   21  C   UNL     1      44.712  16.352  43.529  1.00  0.00     0.149 C 
HETATM   22  H   UNL     1      46.211  16.311  42.033  1.00  0.00     0.162 HD
ENDBRANCH  13  18
ENDBRANCH  11  12
ENDBRANCH   7  11
BRANCH   5  23
HETATM   23  C   UNL     1      41.862  16.213  38.506  1.00  0.00     0.036 C 
HETATM   24  C   UNL     1      40.903  15.268  38.323  1.00  0.00     0.034 C 
BRANCH  24  25
HETATM   25  C   UNL     1      39.463  15.537  38.154  1.00  0.00     0.056 A 
HETATM   26  N   UNL     1      39.147  16.331  37.118  1.00  0.00    -0.261 NA
HETATM   27  C   UNL     1      37.830  16.585  36.956  1.00  0.00     0.117 A 
HETATM   28  C   UNL     1      36.836  16.080  37.780  1.00  0.00     0.019 A 
HETATM   29  C   UNL     1      37.220  15.263  38.838  1.00  0.00     0.004 A 
HETATM   30  C   UNL     1      38.567  14.981  39.036  1.00  0.00     0.031 A 
ENDBRANCH  24  25
ENDBRANCH   5  23
TORSDOF 5
