REMARK VINA RESULT:      -8.5      1.529      2.386
REMARK  5 active torsions:
REMARK  status: ('A' for Active; 'I' for Inactive)
REMARK    1  A    between atoms: S_1  and  C_11 
REMARK    2  A    between atoms: S_1  and  C_14 
REMARK       I    between atoms: N_5  and  C_21 
REMARK    3  A    between atoms: C_9  and  C_15 
REMARK    4  A    between atoms: C_16  and  C_21 
REMARK    5  A    between atoms: C_18  and  C_23 
ROOT
HETATM    1  N   UNL     1      36.497  16.043  37.761  1.00  0.00    -0.277 N 
HETATM    2  N   UNL     1      35.980  14.960  38.366  1.00  0.00    -0.174 NA
HETATM    3  C   UNL     1      38.268  14.955  38.461  1.00  0.00     0.022 A 
HETATM    4  C   UNL     1      37.865  16.099  37.783  1.00  0.00     0.064 A 
HETATM    5  C   UNL     1      37.061  14.301  38.792  1.00  0.00     0.089 A 
HETATM    6  C   UNL     1      38.765  17.040  37.275  1.00  0.00     0.051 A 
HETATM    7  C   UNL     1      40.125  16.788  37.476  1.00  0.00     0.007 A 
HETATM    8  C   UNL     1      39.639  14.716  38.656  1.00  0.00     0.017 A 
HETATM    9  C   UNL     1      40.557  15.647  38.154  1.00  0.00     0.020 A 
HETATM   10  H   UNL     1      35.858  16.710  37.348  1.00  0.00     0.189 HD
ENDROOT
BRANCH   7  11
HETATM   11  S   UNL     1      41.330  17.950  36.853  1.00  0.00    -0.089 SA
BRANCH  11  12
HETATM   12  C   UNL     1      40.280  19.093  35.965  1.00  0.00     0.021 A 
HETATM   13  C   UNL     1      40.291  20.464  36.230  1.00  0.00     0.049 A 
HETATM   14  C   UNL     1      39.455  21.320  35.513  1.00  0.00     0.018 A 
HETATM   15  C   UNL     1      38.607  20.808  34.532  1.00  0.00     0.001 A 
HETATM   16  C   UNL     1      38.594  19.438  34.266  1.00  0.00     0.001 A 
HETATM   17  C   UNL     1      39.430  18.582  34.983  1.00  0.00     0.020 A 
BRANCH  13  18
HETATM   18  C   UNL     1      41.157  21.054  37.244  1.00  0.00     0.252 C 
HETATM   19  O   UNL     1      41.047  20.720  38.434  1.00  0.00    -0.268 OA
HETATM   20  N   UNL     1      42.110  21.975  36.801  1.00  0.00    -0.361 N 
HETATM   21  C   UNL     1      43.056  22.627  37.680  1.00  0.00     0.149 C 
HETATM   22  H   UNL     1      42.173  22.176  35.807  1.00  0.00     0.162 HD
ENDBRANCH  13  18
ENDBRANCH  11  12
ENDBRANCH   7  11
BRANCH   5  23
HETATM   23  C   UNL     1      36.984  13.073  39.500  1.00  0.00     0.036 C 
HETATM   24  C   UNL     1      35.869  12.417  39.917  1.00  0.00     0.034 C 
BRANCH  24  25
HETATM   25  C   UNL     1      35.856  11.146  40.662  1.00  0.00     0.056 A 
HETATM   26  N   UNL     1      34.942  10.250  40.251  1.00  0.00    -0.261 NA
HETATM   27  C   UNL     1      34.923   9.082  40.930  1.00  0.00     0.117 A 
HETATM   28  C   UNL     1      35.770   8.784  41.986  1.00  0.00     0.019 A 
HETATM   29  C   UNL     1      36.697   9.747  42.368  1.00  0.00     0.004 A 
HETATM   30  C   UNL     1      36.746  10.962  41.694  1.00  0.00     0.031 A 
ENDBRANCH  24  25
ENDBRANCH   5  23
TORSDOF 5
