REMARK VINA RESULT:      -8.9      1.498      2.442
REMARK  5 active torsions:
REMARK  status: ('A' for Active; 'I' for Inactive)
REMARK    1  A    between atoms: S_1  and  C_11 
REMARK    2  A    between atoms: S_1  and  C_14 
REMARK       I    between atoms: N_5  and  C_21 
REMARK    3  A    between atoms: C_9  and  C_15 
REMARK    4  A    between atoms: C_16  and  C_21 
REMARK    5  A    between atoms: C_18  and  C_23 
ROOT
HETATM    1  N   UNL     1      44.459  16.266  38.785  1.00  0.00    -0.277 N 
HETATM    2  N   UNL     1      43.185  16.573  38.486  1.00  0.00    -0.174 NA
HETATM    3  C   UNL     1      43.294  14.913  40.058  1.00  0.00     0.022 A 
HETATM    4  C   UNL     1      44.593  15.277  39.722  1.00  0.00     0.064 A 
HETATM    5  C   UNL     1      42.479  15.748  39.263  1.00  0.00     0.089 A 
HETATM    6  C   UNL     1      45.722  14.684  40.291  1.00  0.00     0.051 A 
HETATM    7  C   UNL     1      45.501  13.681  41.240  1.00  0.00     0.007 A 
HETATM    8  C   UNL     1      43.088  13.904  41.014  1.00  0.00     0.017 A 
HETATM    9  C   UNL     1      44.207  13.296  41.597  1.00  0.00     0.020 A 
HETATM   10  H   UNL     1      45.196  16.772  38.309  1.00  0.00     0.189 HD
ENDROOT
BRANCH   7  11
HETATM   11  S   UNL     1      46.900  12.880  42.008  1.00  0.00    -0.089 SA
BRANCH  11  12
HETATM   12  C   UNL     1      47.643  14.248  42.884  1.00  0.00     0.021 A 
HETATM   13  C   UNL     1      48.979  14.610  42.696  1.00  0.00     0.049 A 
HETATM   14  C   UNL     1      49.518  15.685  43.402  1.00  0.00     0.018 A 
HETATM   15  C   UNL     1      48.725  16.401  44.297  1.00  0.00     0.001 A 
HETATM   16  C   UNL     1      47.390  16.042  44.488  1.00  0.00     0.001 A 
HETATM   17  C   UNL     1      46.851  14.966  43.782  1.00  0.00     0.020 A 
BRANCH  13  18
HETATM   18  C   UNL     1      49.854  13.897  41.772  1.00  0.00     0.252 C 
HETATM   19  O   UNL     1      50.087  14.361  40.645  1.00  0.00    -0.268 OA
HETATM   20  N   UNL     1      50.419  12.704  42.232  1.00  0.00    -0.361 N 
HETATM   21  C   UNL     1      51.324  11.896  41.445  1.00  0.00     0.149 C 
HETATM   22  H   UNL     1      50.216  12.399  43.180  1.00  0.00     0.162 HD
ENDBRANCH  13  18
ENDBRANCH  11  12
ENDBRANCH   7  11
BRANCH   5  23
HETATM   23  C   UNL     1      41.060  15.727  39.275  1.00  0.00     0.036 C 
HETATM   24  C   UNL     1      40.232  14.862  38.630  1.00  0.00     0.034 C 
BRANCH  24  25
HETATM   25  C   UNL     1      38.759  14.901  38.673  1.00  0.00     0.056 A 
HETATM   26  N   UNL     1      38.211  16.100  38.414  1.00  0.00    -0.261 NA
HETATM   27  C   UNL     1      36.861  16.146  38.452  1.00  0.00     0.117 A 
HETATM   28  C   UNL     1      36.055  15.054  38.736  1.00  0.00     0.019 A 
HETATM   29  C   UNL     1      36.676  13.837  38.997  1.00  0.00     0.004 A 
HETATM   30  C   UNL     1      38.064  13.752  38.967  1.00  0.00     0.031 A 
ENDBRANCH  24  25
ENDBRANCH   5  23
TORSDOF 5
