REMARK VINA RESULT:      -8.3     10.884     17.651
REMARK  5 active torsions:
REMARK  status: ('A' for Active; 'I' for Inactive)
REMARK    1  A    between atoms: S_1  and  C_11 
REMARK    2  A    between atoms: S_1  and  C_14 
REMARK       I    between atoms: N_5  and  C_21 
REMARK    3  A    between atoms: C_9  and  C_15 
REMARK    4  A    between atoms: C_16  and  C_21 
REMARK    5  A    between atoms: C_18  and  C_23 
ROOT
HETATM    1  N   UNL     1      33.800   8.988  49.724  1.00  0.00    -0.277 N 
HETATM    2  N   UNL     1      33.447   9.352  48.480  1.00  0.00    -0.174 NA
HETATM    3  C   UNL     1      34.990   7.661  48.447  1.00  0.00     0.022 A 
HETATM    4  C   UNL     1      34.723   7.978  49.774  1.00  0.00     0.064 A 
HETATM    5  C   UNL     1      34.173   8.542  47.705  1.00  0.00     0.089 A 
HETATM    6  C   UNL     1      35.333   7.329  50.849  1.00  0.00     0.051 A 
HETATM    7  C   UNL     1      36.250   6.319  50.542  1.00  0.00     0.007 A 
HETATM    8  C   UNL     1      35.913   6.643  48.154  1.00  0.00     0.017 A 
HETATM    9  C   UNL     1      36.536   5.980  49.218  1.00  0.00     0.020 A 
HETATM   10  H   UNL     1      33.371   9.472  50.503  1.00  0.00     0.189 HD
ENDROOT
BRANCH   7  11
HETATM   11  S   UNL     1      37.067   5.447  51.870  1.00  0.00    -0.089 SA
BRANCH  11  12
HETATM   12  C   UNL     1      36.455   3.787  51.621  1.00  0.00     0.021 A 
HETATM   13  C   UNL     1      35.485   3.224  52.453  1.00  0.00     0.049 A 
HETATM   14  C   UNL     1      35.036   1.923  52.222  1.00  0.00     0.018 A 
HETATM   15  C   UNL     1      35.556   1.183  51.161  1.00  0.00     0.001 A 
HETATM   16  C   UNL     1      36.526   1.743  50.329  1.00  0.00     0.001 A 
HETATM   17  C   UNL     1      36.975   3.043  50.560  1.00  0.00     0.020 A 
BRANCH  13  18
HETATM   18  C   UNL     1      34.906   3.952  53.576  1.00  0.00     0.252 C 
HETATM   19  O   UNL     1      34.052   4.830  53.381  1.00  0.00    -0.268 OA
HETATM   20  N   UNL     1      35.343   3.591  54.854  1.00  0.00    -0.361 N 
HETATM   21  C   UNL     1      34.847   4.202  56.067  1.00  0.00     0.149 C 
HETATM   22  H   UNL     1      36.018   2.837  54.947  1.00  0.00     0.162 HD
ENDBRANCH  13  18
ENDBRANCH  11  12
ENDBRANCH   7  11
BRANCH   5  23
HETATM   23  C   UNL     1      34.116   8.578  46.287  1.00  0.00     0.036 C 
HETATM   24  C   UNL     1      34.943   9.239  45.434  1.00  0.00     0.034 C 
BRANCH  24  25
HETATM   25  C   UNL     1      34.822   9.246  43.965  1.00  0.00     0.056 A 
HETATM   26  N   UNL     1      34.745  10.465  43.403  1.00  0.00    -0.261 NA
HETATM   27  C   UNL     1      34.633  10.482  42.057  1.00  0.00     0.117 A 
HETATM   28  C   UNL     1      34.596   9.342  41.267  1.00  0.00     0.019 A 
HETATM   29  C   UNL     1      34.680   8.108  41.902  1.00  0.00     0.004 A 
HETATM   30  C   UNL     1      34.795   8.051  43.286  1.00  0.00     0.031 A 
ENDBRANCH  24  25
ENDBRANCH   5  23
TORSDOF 5
