REMARK VINA RESULT:      -8.7     10.672     16.854
REMARK  5 active torsions:
REMARK  status: ('A' for Active; 'I' for Inactive)
REMARK    1  A    between atoms: S_1  and  C_11 
REMARK    2  A    between atoms: S_1  and  C_14 
REMARK       I    between atoms: N_5  and  C_21 
REMARK    3  A    between atoms: C_9  and  C_15 
REMARK    4  A    between atoms: C_16  and  C_21 
REMARK    5  A    between atoms: C_18  and  C_23 
ROOT
HETATM    1  N   UNL     1      33.845   9.279  49.407  1.00  0.00    -0.277 N 
HETATM    2  N   UNL     1      33.623   9.553  48.110  1.00  0.00    -0.174 NA
HETATM    3  C   UNL     1      34.942   7.698  48.356  1.00  0.00     0.022 A 
HETATM    4  C   UNL     1      34.630   8.178  49.623  1.00  0.00     0.064 A 
HETATM    5  C   UNL     1      34.292   8.588  47.473  1.00  0.00     0.089 A 
HETATM    6  C   UNL     1      35.082   7.576  50.798  1.00  0.00     0.051 A 
HETATM    7  C   UNL     1      35.884   6.439  50.660  1.00  0.00     0.007 A 
HETATM    8  C   UNL     1      35.749   6.554  48.233  1.00  0.00     0.017 A 
HETATM    9  C   UNL     1      36.213   5.935  49.400  1.00  0.00     0.020 A 
HETATM   10  H   UNL     1      33.430   9.888  50.101  1.00  0.00     0.189 HD
ENDROOT
BRANCH   7  11
HETATM   11  S   UNL     1      36.498   5.619  52.123  1.00  0.00    -0.089 SA
BRANCH  11  12
HETATM   12  C   UNL     1      36.360   3.903  51.641  1.00  0.00     0.021 A 
HETATM   13  C   UNL     1      37.478   3.139  51.301  1.00  0.00     0.049 A 
HETATM   14  C   UNL     1      37.324   1.803  50.930  1.00  0.00     0.018 A 
HETATM   15  C   UNL     1      36.054   1.229  50.897  1.00  0.00     0.001 A 
HETATM   16  C   UNL     1      34.935   1.991  51.236  1.00  0.00     0.001 A 
HETATM   17  C   UNL     1      35.089   3.327  51.607  1.00  0.00     0.020 A 
BRANCH  13  18
HETATM   18  C   UNL     1      38.829   3.687  51.318  1.00  0.00     0.252 C 
HETATM   19  O   UNL     1      39.487   3.700  52.370  1.00  0.00    -0.268 OA
HETATM   20  N   UNL     1      39.333   4.161  50.103  1.00  0.00    -0.361 N 
HETATM   21  C   UNL     1      40.662   4.711  49.953  1.00  0.00     0.149 C 
HETATM   22  H   UNL     1      38.755   4.087  49.271  1.00  0.00     0.162 HD
ENDBRANCH  13  18
ENDBRANCH  11  12
ENDBRANCH   7  11
BRANCH   5  23
HETATM   23  C   UNL     1      34.333   8.485  46.058  1.00  0.00     0.036 C 
HETATM   24  C   UNL     1      34.741   9.424  45.164  1.00  0.00     0.034 C 
BRANCH  24  25
HETATM   25  C   UNL     1      34.748   9.259  43.699  1.00  0.00     0.056 A 
HETATM   26  N   UNL     1      34.878  10.396  42.995  1.00  0.00    -0.261 NA
HETATM   27  C   UNL     1      34.884  10.255  41.652  1.00  0.00     0.117 A 
HETATM   28  C   UNL     1      34.767   9.037  40.999  1.00  0.00     0.019 A 
HETATM   29  C   UNL     1      34.635   7.892  41.777  1.00  0.00     0.004 A 
HETATM   30  C   UNL     1      34.624   7.998  43.164  1.00  0.00     0.031 A 
ENDBRANCH  24  25
ENDBRANCH   5  23
TORSDOF 5
