REMARK VINA RESULT:      -7.5     29.589     32.589
REMARK  5 active torsions:
REMARK  status: ('A' for Active; 'I' for Inactive)
REMARK    1  A    between atoms: S_1  and  C_11 
REMARK    2  A    between atoms: S_1  and  C_14 
REMARK       I    between atoms: N_5  and  C_21 
REMARK    3  A    between atoms: C_9  and  C_15 
REMARK    4  A    between atoms: C_16  and  C_21 
REMARK    5  A    between atoms: C_18  and  C_23 
ROOT
HETATM    1  N   UNL     1      34.688   7.430  67.258  1.00  0.00    -0.277 N 
HETATM    2  N   UNL     1      34.564   6.396  66.408  1.00  0.00    -0.174 NA
HETATM    3  C   UNL     1      36.342   6.103  67.820  1.00  0.00     0.022 A 
HETATM    4  C   UNL     1      35.737   7.316  68.131  1.00  0.00     0.064 A 
HETATM    5  C   UNL     1      35.572   5.591  66.754  1.00  0.00     0.089 A 
HETATM    6  C   UNL     1      36.195   8.157  69.148  1.00  0.00     0.051 A 
HETATM    7  C   UNL     1      37.315   7.730  69.867  1.00  0.00     0.007 A 
HETATM    8  C   UNL     1      37.467   5.688  68.552  1.00  0.00     0.017 A 
HETATM    9  C   UNL     1      37.943   6.517  69.575  1.00  0.00     0.020 A 
HETATM   10  H   UNL     1      34.021   8.188  67.188  1.00  0.00     0.189 HD
ENDROOT
BRANCH   7  11
HETATM   11  S   UNL     1      37.954   8.758  71.180  1.00  0.00    -0.089 SA
BRANCH  11  12
HETATM   12  C   UNL     1      39.656   8.950  70.671  1.00  0.00     0.021 A 
HETATM   13  C   UNL     1      40.702   8.297  71.327  1.00  0.00     0.049 A 
HETATM   14  C   UNL     1      42.017   8.475  70.896  1.00  0.00     0.018 A 
HETATM   15  C   UNL     1      42.289   9.308  69.811  1.00  0.00     0.001 A 
HETATM   16  C   UNL     1      41.246   9.962  69.155  1.00  0.00     0.001 A 
HETATM   17  C   UNL     1      39.931   9.783  69.586  1.00  0.00     0.020 A 
BRANCH  13  18
HETATM   18  C   UNL     1      40.476   7.415  72.466  1.00  0.00     0.252 C 
HETATM   19  O   UNL     1      40.189   6.221  72.288  1.00  0.00    -0.268 OA
HETATM   20  N   UNL     1      40.622   7.977  73.737  1.00  0.00    -0.361 N 
HETATM   21  C   UNL     1      40.455   7.229  74.963  1.00  0.00     0.149 C 
HETATM   22  H   UNL     1      40.895   8.953  73.814  1.00  0.00     0.162 HD
ENDBRANCH  13  18
ENDBRANCH  11  12
ENDBRANCH   7  11
BRANCH   5  23
HETATM   23  C   UNL     1      35.826   4.354  66.106  1.00  0.00     0.036 C 
HETATM   24  C   UNL     1      36.788   4.075  65.187  1.00  0.00     0.034 C 
BRANCH  24  25
HETATM   25  C   UNL     1      36.993   2.766  64.539  1.00  0.00     0.056 A 
HETATM   26  N   UNL     1      37.395   2.819  63.258  1.00  0.00    -0.261 NA
HETATM   27  C   UNL     1      37.585   1.625  62.655  1.00  0.00     0.117 A 
HETATM   28  C   UNL     1      37.388   0.402  63.278  1.00  0.00     0.019 A 
HETATM   29  C   UNL     1      36.972   0.406  64.604  1.00  0.00     0.004 A 
HETATM   30  C   UNL     1      36.766   1.616  65.257  1.00  0.00     0.031 A 
ENDBRANCH  24  25
ENDBRANCH   5  23
TORSDOF 5
