REMARK VINA RESULT:      -8.8      7.449      9.074
REMARK  5 active torsions:
REMARK  status: ('A' for Active; 'I' for Inactive)
REMARK    1  A    between atoms: S_1  and  C_11 
REMARK    2  A    between atoms: S_1  and  C_14 
REMARK       I    between atoms: N_5  and  C_21 
REMARK    3  A    between atoms: C_9  and  C_15 
REMARK    4  A    between atoms: C_16  and  C_21 
REMARK    5  A    between atoms: C_18  and  C_23 
ROOT
HETATM    1  N   UNL     1      44.437  16.197  38.671  1.00  0.00    -0.277 N 
HETATM    2  N   UNL     1      43.167  16.512  38.362  1.00  0.00    -0.174 NA
HETATM    3  C   UNL     1      43.253  14.905  39.990  1.00  0.00     0.022 A 
HETATM    4  C   UNL     1      44.557  15.238  39.641  1.00  0.00     0.064 A 
HETATM    5  C   UNL     1      42.450  15.724  39.167  1.00  0.00     0.089 A 
HETATM    6  C   UNL     1      45.677  14.649  40.231  1.00  0.00     0.051 A 
HETATM    7  C   UNL     1      45.442  13.682  41.213  1.00  0.00     0.007 A 
HETATM    8  C   UNL     1      43.033  13.933  40.980  1.00  0.00     0.017 A 
HETATM    9  C   UNL     1      44.143  13.329  41.583  1.00  0.00     0.020 A 
HETATM   10  H   UNL     1      45.181  16.675  38.179  1.00  0.00     0.189 HD
ENDROOT
BRANCH   7  11
HETATM   11  S   UNL     1      46.830  12.888  42.007  1.00  0.00    -0.089 SA
BRANCH  11  12
HETATM   12  C   UNL     1      47.572  14.267  42.868  1.00  0.00     0.021 A 
HETATM   13  C   UNL     1      48.903  14.636  42.664  1.00  0.00     0.049 A 
HETATM   14  C   UNL     1      49.442  15.720  43.358  1.00  0.00     0.018 A 
HETATM   15  C   UNL     1      48.651  16.437  44.256  1.00  0.00     0.001 A 
HETATM   16  C   UNL     1      47.321  16.069  44.462  1.00  0.00     0.001 A 
HETATM   17  C   UNL     1      46.783  14.985  43.768  1.00  0.00     0.020 A 
BRANCH  13  18
HETATM   18  C   UNL     1      49.775  13.924  41.738  1.00  0.00     0.252 C 
HETATM   19  O   UNL     1      49.929  14.338  40.578  1.00  0.00    -0.268 OA
HETATM   20  N   UNL     1      50.427  12.790  42.230  1.00  0.00    -0.361 N 
HETATM   21  C   UNL     1      51.341  11.992  41.443  1.00  0.00     0.149 C 
HETATM   22  H   UNL     1      50.287  12.527  43.201  1.00  0.00     0.162 HD
ENDBRANCH  13  18
ENDBRANCH  11  12
ENDBRANCH   7  11
BRANCH   5  23
HETATM   23  C   UNL     1      41.031  15.724  39.180  1.00  0.00     0.036 C 
HETATM   24  C   UNL     1      40.191  14.805  38.635  1.00  0.00     0.034 C 
BRANCH  24  25
HETATM   25  C   UNL     1      38.719  14.869  38.671  1.00  0.00     0.056 A 
HETATM   26  N   UNL     1      38.191  16.072  38.391  1.00  0.00    -0.261 NA
HETATM   27  C   UNL     1      36.842  16.141  38.424  1.00  0.00     0.117 A 
HETATM   28  C   UNL     1      36.017  15.067  38.722  1.00  0.00     0.019 A 
HETATM   29  C   UNL     1      36.617  13.845  39.003  1.00  0.00     0.004 A 
HETATM   30  C   UNL     1      38.003  13.736  38.980  1.00  0.00     0.031 A 
ENDBRANCH  24  25
ENDBRANCH   5  23
TORSDOF 5
