REMARK VINA RESULT:      -8.4      7.470      9.163
REMARK  5 active torsions:
REMARK  status: ('A' for Active; 'I' for Inactive)
REMARK    1  A    between atoms: S_1  and  C_11 
REMARK    2  A    between atoms: S_1  and  C_14 
REMARK       I    between atoms: N_5  and  C_21 
REMARK    3  A    between atoms: C_9  and  C_15 
REMARK    4  A    between atoms: C_16  and  C_21 
REMARK    5  A    between atoms: C_18  and  C_23 
ROOT
HETATM    1  N   UNL     1      44.250  16.121  38.773  1.00  0.00    -0.277 N 
HETATM    2  N   UNL     1      43.041  15.882  38.237  1.00  0.00    -0.174 NA
HETATM    3  C   UNL     1      43.099  15.303  40.451  1.00  0.00     0.022 A 
HETATM    4  C   UNL     1      44.351  15.794  40.099  1.00  0.00     0.064 A 
HETATM    5  C   UNL     1      42.343  15.385  39.261  1.00  0.00     0.089 A 
HETATM    6  C   UNL     1      45.413  15.888  41.001  1.00  0.00     0.051 A 
HETATM    7  C   UNL     1      45.173  15.460  42.310  1.00  0.00     0.007 A 
HETATM    8  C   UNL     1      42.873  14.877  41.770  1.00  0.00     0.017 A 
HETATM    9  C   UNL     1      43.925  14.962  42.690  1.00  0.00     0.020 A 
HETATM   10  H   UNL     1      44.969  16.509  38.176  1.00  0.00     0.189 HD
ENDROOT
BRANCH   7  11
HETATM   11  S   UNL     1      46.488  15.551  43.514  1.00  0.00    -0.089 SA
BRANCH  11  12
HETATM   12  C   UNL     1      47.659  14.383  42.837  1.00  0.00     0.021 A 
HETATM   13  C   UNL     1      49.016  14.687  42.708  1.00  0.00     0.049 A 
HETATM   14  C   UNL     1      49.895  13.745  42.173  1.00  0.00     0.018 A 
HETATM   15  C   UNL     1      49.420  12.499  41.767  1.00  0.00     0.001 A 
HETATM   16  C   UNL     1      48.065  12.193  41.894  1.00  0.00     0.001 A 
HETATM   17  C   UNL     1      47.186  13.135  42.429  1.00  0.00     0.020 A 
BRANCH  13  18
HETATM   18  C   UNL     1      49.567  15.974  43.117  1.00  0.00     0.252 C 
HETATM   19  O   UNL     1      50.010  16.130  44.265  1.00  0.00    -0.268 OA
HETATM   20  N   UNL     1      49.587  16.986  42.153  1.00  0.00    -0.361 N 
HETATM   21  C   UNL     1      50.123  18.307  42.397  1.00  0.00     0.149 C 
HETATM   22  H   UNL     1      49.243  16.782  41.220  1.00  0.00     0.162 HD
ENDBRANCH  13  18
ENDBRANCH  11  12
ENDBRANCH   7  11
BRANCH   5  23
HETATM   23  C   UNL     1      40.985  14.987  39.146  1.00  0.00     0.036 C 
HETATM   24  C   UNL     1      39.916  15.754  38.807  1.00  0.00     0.034 C 
BRANCH  24  25
HETATM   25  C   UNL     1      38.523  15.281  38.718  1.00  0.00     0.056 A 
HETATM   26  N   UNL     1      37.620  16.217  38.380  1.00  0.00    -0.261 NA
HETATM   27  C   UNL     1      36.340  15.793  38.296  1.00  0.00     0.117 A 
HETATM   28  C   UNL     1      35.939  14.488  38.535  1.00  0.00     0.019 A 
HETATM   29  C   UNL     1      36.914  13.560  38.881  1.00  0.00     0.004 A 
HETATM   30  C   UNL     1      38.243  13.960  38.977  1.00  0.00     0.031 A 
ENDBRANCH  24  25
ENDBRANCH   5  23
TORSDOF 5
