REMARK VINA RESULT:      -8.8      7.675      9.245
REMARK  5 active torsions:
REMARK  status: ('A' for Active; 'I' for Inactive)
REMARK    1  A    between atoms: S_1  and  C_11 
REMARK    2  A    between atoms: S_1  and  C_14 
REMARK       I    between atoms: N_5  and  C_21 
REMARK    3  A    between atoms: C_9  and  C_15 
REMARK    4  A    between atoms: C_16  and  C_21 
REMARK    5  A    between atoms: C_18  and  C_23 
ROOT
HETATM    1  N   UNL     1      44.435  16.247  38.888  1.00  0.00    -0.277 N 
HETATM    2  N   UNL     1      43.154  16.539  38.604  1.00  0.00    -0.174 NA
HETATM    3  C   UNL     1      43.301  14.856  40.149  1.00  0.00     0.022 A 
HETATM    4  C   UNL     1      44.592  15.245  39.808  1.00  0.00     0.064 A 
HETATM    5  C   UNL     1      42.467  15.691  39.374  1.00  0.00     0.089 A 
HETATM    6  C   UNL     1      45.734  14.660  40.359  1.00  0.00     0.051 A 
HETATM    7  C   UNL     1      45.535  13.639  41.293  1.00  0.00     0.007 A 
HETATM    8  C   UNL     1      43.118  13.828  41.090  1.00  0.00     0.017 A 
HETATM    9  C   UNL     1      44.250  13.228  41.654  1.00  0.00     0.020 A 
HETATM   10  H   UNL     1      45.160  16.771  38.415  1.00  0.00     0.189 HD
ENDROOT
BRANCH   7  11
HETATM   11  S   UNL     1      46.953  12.847  42.037  1.00  0.00    -0.089 SA
BRANCH  11  12
HETATM   12  C   UNL     1      47.705  14.221  42.896  1.00  0.00     0.021 A 
HETATM   13  C   UNL     1      49.035  14.590  42.681  1.00  0.00     0.049 A 
HETATM   14  C   UNL     1      49.581  15.670  43.374  1.00  0.00     0.018 A 
HETATM   15  C   UNL     1      48.801  16.383  44.284  1.00  0.00     0.001 A 
HETATM   16  C   UNL     1      47.472  16.016  44.501  1.00  0.00     0.001 A 
HETATM   17  C   UNL     1      46.926  14.936  43.808  1.00  0.00     0.020 A 
BRANCH  13  18
HETATM   18  C   UNL     1      49.896  13.881  41.742  1.00  0.00     0.252 C 
HETATM   19  O   UNL     1      50.071  14.323  40.595  1.00  0.00    -0.268 OA
HETATM   20  N   UNL     1      50.514  12.718  42.208  1.00  0.00    -0.361 N 
HETATM   21  C   UNL     1      51.414  11.918  41.406  1.00  0.00     0.149 C 
HETATM   22  H   UNL     1      50.358  12.431  43.170  1.00  0.00     0.162 HD
ENDBRANCH  13  18
ENDBRANCH  11  12
ENDBRANCH   7  11
BRANCH   5  23
HETATM   23  C   UNL     1      41.049  15.648  39.396  1.00  0.00     0.036 C 
HETATM   24  C   UNL     1      40.224  14.893  38.623  1.00  0.00     0.034 C 
BRANCH  24  25
HETATM   25  C   UNL     1      38.751  14.904  38.687  1.00  0.00     0.056 A 
HETATM   26  N   UNL     1      38.176  16.096  38.455  1.00  0.00    -0.261 NA
HETATM   27  C   UNL     1      36.826  16.116  38.513  1.00  0.00     0.117 A 
HETATM   28  C   UNL     1      36.046  15.004  38.790  1.00  0.00     0.019 A 
HETATM   29  C   UNL     1      36.693  13.795  39.021  1.00  0.00     0.004 A 
HETATM   30  C   UNL     1      38.081  13.737  38.971  1.00  0.00     0.031 A 
ENDBRANCH  24  25
ENDBRANCH   5  23
TORSDOF 5
