REMARK VINA RESULT:      -9.1      3.260      3.793
REMARK  5 active torsions:
REMARK  status: ('A' for Active; 'I' for Inactive)
REMARK    1  A    between atoms: S_1  and  C_11 
REMARK    2  A    between atoms: S_1  and  C_14 
REMARK       I    between atoms: N_5  and  C_21 
REMARK    3  A    between atoms: C_9  and  C_15 
REMARK    4  A    between atoms: C_16  and  C_21 
REMARK    5  A    between atoms: C_18  and  C_23 
ROOT
HETATM    1  N   UNL     1      35.828  15.975  38.042  1.00  0.00    -0.277 N 
HETATM    2  N   UNL     1      35.063  14.955  38.469  1.00  0.00    -0.174 NA
HETATM    3  C   UNL     1      37.291  14.464  38.662  1.00  0.00     0.022 A 
HETATM    4  C   UNL     1      37.174  15.743  38.131  1.00  0.00     0.064 A 
HETATM    5  C   UNL     1      35.958  14.038  38.846  1.00  0.00     0.089 A 
HETATM    6  C   UNL     1      38.277  16.533  37.798  1.00  0.00     0.051 A 
HETATM    7  C   UNL     1      39.542  15.981  38.021  1.00  0.00     0.007 A 
HETATM    8  C   UNL     1      38.569  13.923  38.881  1.00  0.00     0.017 A 
HETATM    9  C   UNL     1      39.688  14.699  38.553  1.00  0.00     0.020 A 
HETATM   10  H   UNL     1      35.365  16.807  37.698  1.00  0.00     0.189 HD
ENDROOT
BRANCH   7  11
HETATM   11  S   UNL     1      40.996  16.937  37.616  1.00  0.00    -0.089 SA
BRANCH  11  12
HETATM   12  C   UNL     1      42.192  16.242  38.747  1.00  0.00     0.021 A 
HETATM   13  C   UNL     1      43.559  16.231  38.463  1.00  0.00     0.049 A 
HETATM   14  C   UNL     1      44.458  15.677  39.375  1.00  0.00     0.018 A 
HETATM   15  C   UNL     1      43.992  15.133  40.572  1.00  0.00     0.001 A 
HETATM   16  C   UNL     1      42.627  15.142  40.858  1.00  0.00     0.001 A 
HETATM   17  C   UNL     1      41.728  15.696  39.946  1.00  0.00     0.020 A 
BRANCH  13  18
HETATM   18  C   UNL     1      44.101  16.786  37.229  1.00  0.00     0.252 C 
HETATM   19  O   UNL     1      44.445  17.977  37.174  1.00  0.00    -0.268 OA
HETATM   20  N   UNL     1      44.229  15.911  36.147  1.00  0.00    -0.361 N 
HETATM   21  C   UNL     1      44.771  16.304  34.864  1.00  0.00     0.149 C 
HETATM   22  H   UNL     1      43.964  14.938  36.269  1.00  0.00     0.162 HD
ENDBRANCH  13  18
ENDBRANCH  11  12
ENDBRANCH   7  11
BRANCH   5  23
HETATM   23  C   UNL     1      35.587  12.773  39.373  1.00  0.00     0.036 C 
HETATM   24  C   UNL     1      36.245  12.031  40.304  1.00  0.00     0.034 C 
BRANCH  24  25
HETATM   25  C   UNL     1      35.812  10.714  40.803  1.00  0.00     0.056 A 
HETATM   26  N   UNL     1      35.035  10.010  39.962  1.00  0.00    -0.261 NA
HETATM   27  C   UNL     1      34.632   8.801  40.412  1.00  0.00     0.117 A 
HETATM   28  C   UNL     1      34.974   8.281  41.651  1.00  0.00     0.019 A 
HETATM   29  C   UNL     1      35.781   9.052  42.480  1.00  0.00     0.004 A 
HETATM   30  C   UNL     1      36.214  10.302  42.052  1.00  0.00     0.031 A 
ENDBRANCH  24  25
ENDBRANCH   5  23
TORSDOF 5
