REMARK VINA RESULT:      -8.2      6.519      8.868
REMARK  5 active torsions:
REMARK  status: ('A' for Active; 'I' for Inactive)
REMARK    1  A    between atoms: S_1  and  C_11 
REMARK    2  A    between atoms: S_1  and  C_14 
REMARK       I    between atoms: N_5  and  C_21 
REMARK    3  A    between atoms: C_9  and  C_15 
REMARK    4  A    between atoms: C_16  and  C_21 
REMARK    5  A    between atoms: C_18  and  C_23 
ROOT
HETATM    1  N   UNL     1      41.637  15.449  38.146  1.00  0.00    -0.277 N 
HETATM    2  N   UNL     1      40.763  14.750  38.891  1.00  0.00    -0.174 NA
HETATM    3  C   UNL     1      39.684  16.159  37.446  1.00  0.00     0.022 A 
HETATM    4  C   UNL     1      41.053  16.313  37.259  1.00  0.00     0.064 A 
HETATM    5  C   UNL     1      39.576  15.185  38.462  1.00  0.00     0.089 A 
HETATM    6  C   UNL     1      41.599  17.197  36.327  1.00  0.00     0.051 A 
HETATM    7  C   UNL     1      40.701  17.948  35.563  1.00  0.00     0.007 A 
HETATM    8  C   UNL     1      38.794  16.921  36.670  1.00  0.00     0.017 A 
HETATM    9  C   UNL     1      39.322  17.814  35.730  1.00  0.00     0.020 A 
HETATM   10  H   UNL     1      42.625  15.289  38.294  1.00  0.00     0.189 HD
ENDROOT
BRANCH   7  11
HETATM   11  S   UNL     1      41.333  19.100  34.352  1.00  0.00    -0.089 SA
BRANCH  11  12
HETATM   12  C   UNL     1      41.719  20.507  35.383  1.00  0.00     0.021 A 
HETATM   13  C   UNL     1      40.792  21.524  35.623  1.00  0.00     0.049 A 
HETATM   14  C   UNL     1      41.135  22.606  36.434  1.00  0.00     0.018 A 
HETATM   15  C   UNL     1      42.405  22.674  37.007  1.00  0.00     0.001 A 
HETATM   16  C   UNL     1      43.333  21.659  36.768  1.00  0.00     0.001 A 
HETATM   17  C   UNL     1      42.990  20.578  35.957  1.00  0.00     0.020 A 
BRANCH  13  18
HETATM   18  C   UNL     1      39.451  21.505  35.051  1.00  0.00     0.252 C 
HETATM   19  O   UNL     1      38.501  21.031  35.695  1.00  0.00    -0.268 OA
HETATM   20  N   UNL     1      39.300  22.059  33.777  1.00  0.00    -0.361 N 
HETATM   21  C   UNL     1      38.032  22.136  33.087  1.00  0.00     0.149 C 
HETATM   22  H   UNL     1      40.112  22.465  33.320  1.00  0.00     0.162 HD
ENDBRANCH  13  18
ENDBRANCH  11  12
ENDBRANCH   7  11
BRANCH   5  23
HETATM   23  C   UNL     1      38.346  14.706  38.984  1.00  0.00     0.036 C 
HETATM   24  C   UNL     1      37.852  13.441  38.930  1.00  0.00     0.034 C 
BRANCH  24  25
HETATM   25  C   UNL     1      36.556  13.008  39.484  1.00  0.00     0.056 A 
HETATM   26  N   UNL     1      35.487  13.691  39.039  1.00  0.00    -0.261 NA
HETATM   27  C   UNL     1      34.295  13.303  39.541  1.00  0.00     0.117 A 
HETATM   28  C   UNL     1      34.137  12.274  40.458  1.00  0.00     0.019 A 
HETATM   29  C   UNL     1      35.277  11.601  40.883  1.00  0.00     0.004 A 
HETATM   30  C   UNL     1      36.522  11.973  40.388  1.00  0.00     0.031 A 
ENDBRANCH  24  25
ENDBRANCH   5  23
TORSDOF 5
