REMARK VINA RESULT:      -8.8     10.951     16.888
REMARK  5 active torsions:
REMARK  status: ('A' for Active; 'I' for Inactive)
REMARK    1  A    between atoms: S_1  and  C_11 
REMARK    2  A    between atoms: S_1  and  C_14 
REMARK       I    between atoms: N_5  and  C_21 
REMARK    3  A    between atoms: C_9  and  C_15 
REMARK    4  A    between atoms: C_16  and  C_21 
REMARK    5  A    between atoms: C_18  and  C_23 
ROOT
HETATM    1  N   UNL     1      33.842   9.259  49.461  1.00  0.00    -0.277 N 
HETATM    2  N   UNL     1      33.624   9.549  48.167  1.00  0.00    -0.174 NA
HETATM    3  C   UNL     1      34.949   7.696  48.394  1.00  0.00     0.022 A 
HETATM    4  C   UNL     1      34.630   8.158  49.665  1.00  0.00     0.064 A 
HETATM    5  C   UNL     1      34.299   8.595  47.521  1.00  0.00     0.089 A 
HETATM    6  C   UNL     1      35.080   7.542  50.835  1.00  0.00     0.051 A 
HETATM    7  C   UNL     1      35.886   6.410  50.685  1.00  0.00     0.007 A 
HETATM    8  C   UNL     1      35.760   6.556  48.259  1.00  0.00     0.017 A 
HETATM    9  C   UNL     1      36.222   5.923  49.419  1.00  0.00     0.020 A 
HETATM   10  H   UNL     1      33.422   9.857  50.162  1.00  0.00     0.189 HD
ENDROOT
BRANCH   7  11
HETATM   11  S   UNL     1      36.497   5.572  52.139  1.00  0.00    -0.089 SA
BRANCH  11  12
HETATM   12  C   UNL     1      36.386   3.864  51.626  1.00  0.00     0.021 A 
HETATM   13  C   UNL     1      37.516   3.124  51.272  1.00  0.00     0.049 A 
HETATM   14  C   UNL     1      37.384   1.792  50.877  1.00  0.00     0.018 A 
HETATM   15  C   UNL     1      36.123   1.199  50.835  1.00  0.00     0.001 A 
HETATM   16  C   UNL     1      34.992   1.936  51.188  1.00  0.00     0.001 A 
HETATM   17  C   UNL     1      35.125   3.268  51.583  1.00  0.00     0.020 A 
BRANCH  13  18
HETATM   18  C   UNL     1      38.859   3.693  51.297  1.00  0.00     0.252 C 
HETATM   19  O   UNL     1      39.506   3.726  52.356  1.00  0.00    -0.268 OA
HETATM   20  N   UNL     1      39.367   4.165  50.084  1.00  0.00    -0.361 N 
HETATM   21  C   UNL     1      40.689   4.734  49.942  1.00  0.00     0.149 C 
HETATM   22  H   UNL     1      38.800   4.074  49.246  1.00  0.00     0.162 HD
ENDBRANCH  13  18
ENDBRANCH  11  12
ENDBRANCH   7  11
BRANCH   5  23
HETATM   23  C   UNL     1      34.346   8.510  46.104  1.00  0.00     0.036 C 
HETATM   24  C   UNL     1      34.742   9.467  45.224  1.00  0.00     0.034 C 
BRANCH  24  25
HETATM   25  C   UNL     1      34.756   9.321  43.757  1.00  0.00     0.056 A 
HETATM   26  N   UNL     1      34.658   8.058  43.307  1.00  0.00    -0.261 NA
HETATM   27  C   UNL     1      34.671   7.914  41.963  1.00  0.00     0.117 A 
HETATM   28  C   UNL     1      34.778   8.970  41.071  1.00  0.00     0.019 A 
HETATM   29  C   UNL     1      34.876  10.255  41.592  1.00  0.00     0.004 A 
HETATM   30  C   UNL     1      34.866  10.443  42.970  1.00  0.00     0.031 A 
ENDBRANCH  24  25
ENDBRANCH   5  23
TORSDOF 5
