REMARK VINA RESULT:      -7.8     20.250     22.104
REMARK  5 active torsions:
REMARK  status: ('A' for Active; 'I' for Inactive)
REMARK    1  A    between atoms: S_1  and  C_11 
REMARK    2  A    between atoms: S_1  and  C_14 
REMARK       I    between atoms: N_5  and  C_21 
REMARK    3  A    between atoms: C_9  and  C_15 
REMARK    4  A    between atoms: C_16  and  C_21 
REMARK    5  A    between atoms: C_18  and  C_23 
ROOT
HETATM    1  N   UNL     1      32.984   4.126  57.260  1.00  0.00    -0.277 N 
HETATM    2  N   UNL     1      33.330   3.762  58.506  1.00  0.00    -0.174 NA
HETATM    3  C   UNL     1      34.988   3.273  57.005  1.00  0.00     0.022 A 
HETATM    4  C   UNL     1      33.935   3.859  56.312  1.00  0.00     0.064 A 
HETATM    5  C   UNL     1      34.551   3.244  58.347  1.00  0.00     0.089 A 
HETATM    6  C   UNL     1      33.960   4.080  54.933  1.00  0.00     0.051 A 
HETATM    7  C   UNL     1      35.111   3.681  54.248  1.00  0.00     0.007 A 
HETATM    8  C   UNL     1      36.139   2.878  56.302  1.00  0.00     0.017 A 
HETATM    9  C   UNL     1      36.183   3.090  54.919  1.00  0.00     0.020 A 
HETATM   10  H   UNL     1      32.076   4.553  57.122  1.00  0.00     0.189 HD
ENDROOT
BRANCH   7  11
HETATM   11  S   UNL     1      35.209   3.933  52.482  1.00  0.00    -0.089 SA
BRANCH  11  12
HETATM   12  C   UNL     1      35.333   5.714  52.395  1.00  0.00     0.021 A 
HETATM   13  C   UNL     1      36.559   6.376  52.500  1.00  0.00     0.049 A 
HETATM   14  C   UNL     1      36.609   7.768  52.425  1.00  0.00     0.018 A 
HETATM   15  C   UNL     1      35.436   8.501  52.247  1.00  0.00     0.001 A 
HETATM   16  C   UNL     1      34.211   7.842  52.142  1.00  0.00     0.001 A 
HETATM   17  C   UNL     1      34.160   6.450  52.216  1.00  0.00     0.020 A 
BRANCH  13  18
HETATM   18  C   UNL     1      37.815   5.660  52.687  1.00  0.00     0.252 C 
HETATM   19  O   UNL     1      38.264   5.468  53.828  1.00  0.00    -0.268 OA
HETATM   20  N   UNL     1      38.454   5.196  51.534  1.00  0.00    -0.361 N 
HETATM   21  C   UNL     1      39.693   4.449  51.555  1.00  0.00     0.149 C 
HETATM   22  H   UNL     1      38.014   5.354  50.632  1.00  0.00     0.162 HD
ENDBRANCH  13  18
ENDBRANCH  11  12
ENDBRANCH   7  11
BRANCH   5  23
HETATM   23  C   UNL     1      35.313   2.723  59.425  1.00  0.00     0.036 C 
HETATM   24  C   UNL     1      35.786   3.389  60.512  1.00  0.00     0.034 C 
BRANCH  24  25
HETATM   25  C   UNL     1      36.586   2.790  61.596  1.00  0.00     0.056 A 
HETATM   26  N   UNL     1      37.280   1.691  61.255  1.00  0.00    -0.261 NA
HETATM   27  C   UNL     1      38.015   1.134  62.243  1.00  0.00     0.117 A 
HETATM   28  C   UNL     1      38.078   1.630  63.536  1.00  0.00     0.019 A 
HETATM   29  C   UNL     1      37.341   2.770  63.833  1.00  0.00     0.004 A 
HETATM   30  C   UNL     1      36.571   3.371  62.842  1.00  0.00     0.031 A 
ENDBRANCH  24  25
ENDBRANCH   5  23
TORSDOF 5
