REMARK VINA RESULT:      -7.7     16.629     17.690
REMARK  5 active torsions:
REMARK  status: ('A' for Active; 'I' for Inactive)
REMARK    1  A    between atoms: S_1  and  C_11 
REMARK    2  A    between atoms: S_1  and  C_14 
REMARK       I    between atoms: N_5  and  C_21 
REMARK    3  A    between atoms: C_9  and  C_15 
REMARK    4  A    between atoms: C_16  and  C_21 
REMARK    5  A    between atoms: C_18  and  C_23 
ROOT
HETATM    1  N   UNL     1      38.625   6.141  52.564  1.00  0.00    -0.277 N 
HETATM    2  N   UNL     1      37.432   6.013  53.169  1.00  0.00    -0.174 NA
HETATM    3  C   UNL     1      38.985   4.603  54.085  1.00  0.00     0.022 A 
HETATM    4  C   UNL     1      39.600   5.322  53.067  1.00  0.00     0.064 A 
HETATM    5  C   UNL     1      37.655   5.076  54.094  1.00  0.00     0.089 A 
HETATM    6  C   UNL     1      40.943   5.157  52.721  1.00  0.00     0.051 A 
HETATM    7  C   UNL     1      41.675   4.216  53.452  1.00  0.00     0.007 A 
HETATM    8  C   UNL     1      39.734   3.661  54.811  1.00  0.00     0.017 A 
HETATM    9  C   UNL     1      41.082   3.479  54.479  1.00  0.00     0.020 A 
HETATM   10  H   UNL     1      38.708   6.810  51.809  1.00  0.00     0.189 HD
ENDROOT
BRANCH   7  11
HETATM   11  S   UNL     1      43.397   3.953  53.062  1.00  0.00    -0.089 SA
BRANCH  11  12
HETATM   12  C   UNL     1      44.158   5.324  53.919  1.00  0.00     0.021 A 
HETATM   13  C   UNL     1      44.702   6.414  53.235  1.00  0.00     0.049 A 
HETATM   14  C   UNL     1      45.286   7.463  53.944  1.00  0.00     0.018 A 
HETATM   15  C   UNL     1      45.330   7.425  55.338  1.00  0.00     0.001 A 
HETATM   16  C   UNL     1      44.789   6.337  56.023  1.00  0.00     0.001 A 
HETATM   17  C   UNL     1      44.204   5.288  55.314  1.00  0.00     0.020 A 
BRANCH  13  18
HETATM   18  C   UNL     1      44.683   6.507  51.780  1.00  0.00     0.252 C 
HETATM   19  O   UNL     1      45.558   5.943  51.104  1.00  0.00    -0.268 OA
HETATM   20  N   UNL     1      43.633   7.230  51.207  1.00  0.00    -0.361 N 
HETATM   21  C   UNL     1      43.463   7.392  49.780  1.00  0.00     0.149 C 
HETATM   22  H   UNL     1      42.928   7.635  51.816  1.00  0.00     0.162 HD
ENDBRANCH  13  18
ENDBRANCH  11  12
ENDBRANCH   7  11
BRANCH   5  23
HETATM   23  C   UNL     1      36.649   4.617  54.984  1.00  0.00     0.036 C 
HETATM   24  C   UNL     1      35.304   4.792  54.886  1.00  0.00     0.034 C 
BRANCH  24  25
HETATM   25  C   UNL     1      34.309   4.299  55.855  1.00  0.00     0.056 A 
HETATM   26  N   UNL     1      34.541   4.635  57.135  1.00  0.00    -0.261 NA
HETATM   27  C   UNL     1      33.634   4.186  58.031  1.00  0.00     0.117 A 
HETATM   28  C   UNL     1      32.523   3.426  57.696  1.00  0.00     0.019 A 
HETATM   29  C   UNL     1      32.332   3.109  56.356  1.00  0.00     0.004 A 
HETATM   30  C   UNL     1      33.245   3.553  55.406  1.00  0.00     0.031 A 
ENDBRANCH  24  25
ENDBRANCH   5  23
TORSDOF 5
