REMARK VINA RESULT:      -9.2      0.000      0.000
REMARK  5 active torsions:
REMARK  status: ('A' for Active; 'I' for Inactive)
REMARK    1  A    between atoms: S_1  and  C_11 
REMARK    2  A    between atoms: S_1  and  C_14 
REMARK       I    between atoms: N_5  and  C_21 
REMARK    3  A    between atoms: C_9  and  C_15 
REMARK    4  A    between atoms: C_16  and  C_21 
REMARK    5  A    between atoms: C_18  and  C_23 
ROOT
HETATM    1  N   UNL     1      36.554  16.187  37.589  1.00  0.00    -0.277 N 
HETATM    2  N   UNL     1      36.047  15.290  38.452  1.00  0.00    -0.174 NA
HETATM    3  C   UNL     1      38.327  15.127  38.326  1.00  0.00     0.022 A 
HETATM    4  C   UNL     1      37.917  16.140  37.467  1.00  0.00     0.064 A 
HETATM    5  C   UNL     1      37.129  14.647  38.899  1.00  0.00     0.089 A 
HETATM    6  C   UNL     1      38.807  16.888  36.693  1.00  0.00     0.051 A 
HETATM    7  C   UNL     1      40.165  16.577  36.810  1.00  0.00     0.007 A 
HETATM    8  C   UNL     1      39.695  14.826  38.433  1.00  0.00     0.017 A 
HETATM    9  C   UNL     1      40.604  15.564  37.664  1.00  0.00     0.020 A 
HETATM   10  H   UNL     1      35.912  16.806  37.111  1.00  0.00     0.189 HD
ENDROOT
BRANCH   7  11
HETATM   11  S   UNL     1      41.357  17.494  35.847  1.00  0.00    -0.089 SA
BRANCH  11  12
HETATM   12  C   UNL     1      41.227  19.115  36.589  1.00  0.00     0.021 A 
HETATM   13  C   UNL     1      40.658  20.195  35.910  1.00  0.00     0.049 A 
HETATM   14  C   UNL     1      40.577  21.443  36.528  1.00  0.00     0.018 A 
HETATM   15  C   UNL     1      41.064  21.615  37.823  1.00  0.00     0.001 A 
HETATM   16  C   UNL     1      41.634  20.537  38.503  1.00  0.00     0.001 A 
HETATM   17  C   UNL     1      41.715  19.289  37.885  1.00  0.00     0.020 A 
BRANCH  13  18
HETATM   18  C   UNL     1      40.133  20.073  34.556  1.00  0.00     0.252 C 
HETATM   19  O   UNL     1      38.995  19.615  34.363  1.00  0.00    -0.268 OA
HETATM   20  N   UNL     1      40.957  20.514  33.517  1.00  0.00    -0.361 N 
HETATM   21  C   UNL     1      40.570  20.481  32.124  1.00  0.00     0.149 C 
HETATM   22  H   UNL     1      41.863  20.914  33.746  1.00  0.00     0.162 HD
ENDBRANCH  13  18
ENDBRANCH  11  12
ENDBRANCH   7  11
BRANCH   5  23
HETATM   23  C   UNL     1      37.061  13.595  39.849  1.00  0.00     0.036 C 
HETATM   24  C   UNL     1      36.242  12.510  39.837  1.00  0.00     0.034 C 
BRANCH  24  25
HETATM   25  C   UNL     1      36.212  11.455  40.866  1.00  0.00     0.056 A 
HETATM   26  N   UNL     1      35.689  10.282  40.467  1.00  0.00    -0.261 NA
HETATM   27  C   UNL     1      35.656   9.308  41.403  1.00  0.00     0.117 A 
HETATM   28  C   UNL     1      36.119   9.464  42.701  1.00  0.00     0.019 A 
HETATM   29  C   UNL     1      36.651  10.698  43.059  1.00  0.00     0.004 A 
HETATM   30  C   UNL     1      36.701  11.725  42.122  1.00  0.00     0.031 A 
ENDBRANCH  24  25
ENDBRANCH   5  23
TORSDOF 5
