REMARK VINA RESULT:      -7.5     16.476     18.859
REMARK  5 active torsions:
REMARK  status: ('A' for Active; 'I' for Inactive)
REMARK    1  A    between atoms: S_1  and  C_11 
REMARK    2  A    between atoms: S_1  and  C_14 
REMARK       I    between atoms: N_5  and  C_21 
REMARK    3  A    between atoms: C_9  and  C_15 
REMARK    4  A    between atoms: C_16  and  C_21 
REMARK    5  A    between atoms: C_18  and  C_23 
ROOT
HETATM    1  N   UNL     1      38.741   3.887  47.313  1.00  0.00    -0.277 N 
HETATM    2  N   UNL     1      39.887   3.296  46.935  1.00  0.00    -0.174 NA
HETATM    3  C   UNL     1      38.955   2.231  48.735  1.00  0.00     0.022 A 
HETATM    4  C   UNL     1      38.132   3.296  48.388  1.00  0.00     0.064 A 
HETATM    5  C   UNL     1      40.014   2.288  47.803  1.00  0.00     0.089 A 
HETATM    6  C   UNL     1      36.952   3.600  49.070  1.00  0.00     0.051 A 
HETATM    7  C   UNL     1      36.612   2.777  50.147  1.00  0.00     0.007 A 
HETATM    8  C   UNL     1      38.600   1.412  49.819  1.00  0.00     0.017 A 
HETATM    9  C   UNL     1      37.420   1.700  50.517  1.00  0.00     0.020 A 
HETATM   10  H   UNL     1      38.427   4.696  46.792  1.00  0.00     0.189 HD
ENDROOT
BRANCH   7  11
HETATM   11  S   UNL     1      35.116   3.109  51.063  1.00  0.00    -0.089 SA
BRANCH  11  12
HETATM   12  C   UNL     1      34.804   4.810  50.611  1.00  0.00     0.021 A 
HETATM   13  C   UNL     1      35.428   5.875  51.264  1.00  0.00     0.049 A 
HETATM   14  C   UNL     1      35.156   7.188  50.878  1.00  0.00     0.018 A 
HETATM   15  C   UNL     1      34.260   7.438  49.839  1.00  0.00     0.001 A 
HETATM   16  C   UNL     1      33.635   6.376  49.185  1.00  0.00     0.001 A 
HETATM   17  C   UNL     1      33.908   5.064  49.571  1.00  0.00     0.020 A 
BRANCH  13  18
HETATM   18  C   UNL     1      36.373   5.672  52.356  1.00  0.00     0.252 C 
HETATM   19  O   UNL     1      35.965   5.509  53.517  1.00  0.00    -0.268 OA
HETATM   20  N   UNL     1      37.729   5.646  52.020  1.00  0.00    -0.361 N 
HETATM   21  C   UNL     1      38.785   5.430  52.985  1.00  0.00     0.149 C 
HETATM   22  H   UNL     1      37.994   5.748  51.045  1.00  0.00     0.162 HD
ENDBRANCH  13  18
ENDBRANCH  11  12
ENDBRANCH   7  11
BRANCH   5  23
HETATM   23  C   UNL     1      41.105   1.381  47.775  1.00  0.00     0.036 C 
HETATM   24  C   UNL     1      42.219   1.390  48.554  1.00  0.00     0.034 C 
BRANCH  24  25
HETATM   25  C   UNL     1      43.328   0.423  48.467  1.00  0.00     0.056 A 
HETATM   26  N   UNL     1      44.559   0.953  48.561  1.00  0.00    -0.261 NA
HETATM   27  C   UNL     1      45.582   0.073  48.481  1.00  0.00     0.117 A 
HETATM   28  C   UNL     1      45.418  -1.293  48.313  1.00  0.00     0.019 A 
HETATM   29  C   UNL     1      44.122  -1.787  48.222  1.00  0.00     0.004 A 
HETATM   30  C   UNL     1      43.044  -0.912  48.299  1.00  0.00     0.031 A 
ENDBRANCH  24  25
ENDBRANCH   5  23
TORSDOF 5
