REMARK VINA RESULT:      -8.8      7.287      9.153
REMARK  5 active torsions:
REMARK  status: ('A' for Active; 'I' for Inactive)
REMARK    1  A    between atoms: S_1  and  C_11 
REMARK    2  A    between atoms: S_1  and  C_14 
REMARK       I    between atoms: N_5  and  C_21 
REMARK    3  A    between atoms: C_9  and  C_15 
REMARK    4  A    between atoms: C_16  and  C_21 
REMARK    5  A    between atoms: C_18  and  C_23 
ROOT
HETATM    1  N   UNL     1      44.101  16.212  38.424  1.00  0.00    -0.277 N 
HETATM    2  N   UNL     1      42.829  16.322  38.003  1.00  0.00    -0.174 NA
HETATM    3  C   UNL     1      42.931  15.512  40.141  1.00  0.00     0.022 A 
HETATM    4  C   UNL     1      44.231  15.732  39.700  1.00  0.00     0.064 A 
HETATM    5  C   UNL     1      42.120  15.895  39.051  1.00  0.00     0.089 A 
HETATM    6  C   UNL     1      45.356  15.478  40.487  1.00  0.00     0.051 A 
HETATM    7  C   UNL     1      45.130  14.979  41.773  1.00  0.00     0.007 A 
HETATM    8  C   UNL     1      42.720  15.011  41.437  1.00  0.00     0.017 A 
HETATM    9  C   UNL     1      43.836  14.749  42.243  1.00  0.00     0.020 A 
HETATM   10  H   UNL     1      44.840  16.483  37.787  1.00  0.00     0.189 HD
ENDROOT
BRANCH   7  11
HETATM   11  S   UNL     1      46.525  14.632  42.833  1.00  0.00    -0.089 SA
BRANCH  11  12
HETATM   12  C   UNL     1      47.349  13.344  41.908  1.00  0.00     0.021 A 
HETATM   13  C   UNL     1      48.688  13.450  41.523  1.00  0.00     0.049 A 
HETATM   14  C   UNL     1      49.291  12.420  40.801  1.00  0.00     0.018 A 
HETATM   15  C   UNL     1      48.559  11.283  40.462  1.00  0.00     0.001 A 
HETATM   16  C   UNL     1      47.222  11.174  40.845  1.00  0.00     0.001 A 
HETATM   17  C   UNL     1      46.618  12.204  41.567  1.00  0.00     0.020 A 
BRANCH  13  18
HETATM   18  C   UNL     1      49.500  14.616  41.850  1.00  0.00     0.252 C 
HETATM   19  O   UNL     1      49.535  15.591  41.083  1.00  0.00    -0.268 OA
HETATM   20  N   UNL     1      50.198  14.579  43.060  1.00  0.00    -0.361 N 
HETATM   21  C   UNL     1      51.026  15.665  43.535  1.00  0.00     0.149 C 
HETATM   22  H   UNL     1      50.097  13.765  43.660  1.00  0.00     0.162 HD
ENDBRANCH  13  18
ENDBRANCH  11  12
ENDBRANCH   7  11
BRANCH   5  23
HETATM   23  C   UNL     1      40.702  15.839  39.050  1.00  0.00     0.036 C 
HETATM   24  C   UNL     1      39.907  14.804  38.669  1.00  0.00     0.034 C 
BRANCH  24  25
HETATM   25  C   UNL     1      38.433  14.813  38.680  1.00  0.00     0.056 A 
HETATM   26  N   UNL     1      37.866  15.984  38.345  1.00  0.00    -0.261 NA
HETATM   27  C   UNL     1      36.515  16.003  38.353  1.00  0.00     0.117 A 
HETATM   28  C   UNL     1      35.726  14.910  38.680  1.00  0.00     0.019 A 
HETATM   29  C   UNL     1      36.366  13.723  39.018  1.00  0.00     0.004 A 
HETATM   30  C   UNL     1      37.755  13.666  39.021  1.00  0.00     0.031 A 
ENDBRANCH  24  25
ENDBRANCH   5  23
TORSDOF 5
