REMARK VINA RESULT:      -9.3      0.000      0.000
REMARK  5 active torsions:
REMARK  status: ('A' for Active; 'I' for Inactive)
REMARK    1  A    between atoms: S_1  and  C_11 
REMARK    2  A    between atoms: S_1  and  C_14 
REMARK       I    between atoms: N_5  and  C_21 
REMARK    3  A    between atoms: C_9  and  C_15 
REMARK    4  A    between atoms: C_16  and  C_21 
REMARK    5  A    between atoms: C_18  and  C_23 
ROOT
HETATM    1  N   UNL     1      36.250  16.309  37.505  1.00  0.00    -0.277 N 
HETATM    2  N   UNL     1      35.704  15.438  38.371  1.00  0.00    -0.174 NA
HETATM    3  C   UNL     1      37.978  15.198  38.272  1.00  0.00     0.022 A 
HETATM    4  C   UNL     1      37.612  16.216  37.399  1.00  0.00     0.064 A 
HETATM    5  C   UNL     1      36.759  14.764  38.836  1.00  0.00     0.089 A 
HETATM    6  C   UNL     1      38.534  16.926  36.627  1.00  0.00     0.051 A 
HETATM    7  C   UNL     1      39.880  16.572  36.762  1.00  0.00     0.007 A 
HETATM    8  C   UNL     1      39.335  14.854  38.397  1.00  0.00     0.017 A 
HETATM    9  C   UNL     1      40.276  15.553  37.631  1.00  0.00     0.020 A 
HETATM   10  H   UNL     1      35.634  16.944  37.013  1.00  0.00     0.189 HD
ENDROOT
BRANCH   7  11
HETATM   11  S   UNL     1      41.112  17.439  35.804  1.00  0.00    -0.089 SA
BRANCH  11  12
HETATM   12  C   UNL     1      41.097  19.043  36.592  1.00  0.00     0.021 A 
HETATM   13  C   UNL     1      40.548  20.167  35.970  1.00  0.00     0.049 A 
HETATM   14  C   UNL     1      40.558  21.400  36.623  1.00  0.00     0.018 A 
HETATM   15  C   UNL     1      41.115  21.512  37.896  1.00  0.00     0.001 A 
HETATM   16  C   UNL     1      41.664  20.391  38.519  1.00  0.00     0.001 A 
HETATM   17  C   UNL     1      41.655  19.158  37.866  1.00  0.00     0.020 A 
BRANCH  13  18
HETATM   18  C   UNL     1      39.952  20.107  34.641  1.00  0.00     0.252 C 
HETATM   19  O   UNL     1      38.770  19.759  34.499  1.00  0.00    -0.268 OA
HETATM   20  N   UNL     1      40.766  20.480  33.568  1.00  0.00    -0.361 N 
HETATM   21  C   UNL     1      40.314  20.496  32.194  1.00  0.00     0.149 C 
HETATM   22  H   UNL     1      41.714  20.791  33.756  1.00  0.00     0.162 HD
ENDBRANCH  13  18
ENDBRANCH  11  12
ENDBRANCH   7  11
BRANCH   5  23
HETATM   23  C   UNL     1      36.646  13.724  39.796  1.00  0.00     0.036 C 
HETATM   24  C   UNL     1      35.935  12.570  39.697  1.00  0.00     0.034 C 
BRANCH  24  25
HETATM   25  C   UNL     1      35.848  11.531  40.739  1.00  0.00     0.056 A 
HETATM   26  N   UNL     1      34.947  10.562  40.508  1.00  0.00    -0.261 NA
HETATM   27  C   UNL     1      34.859   9.606  41.458  1.00  0.00     0.117 A 
HETATM   28  C   UNL     1      35.628   9.586  42.612  1.00  0.00     0.019 A 
HETATM   29  C   UNL     1      36.546  10.614  42.799  1.00  0.00     0.004 A 
HETATM   30  C   UNL     1      36.664  11.616  41.843  1.00  0.00     0.031 A 
ENDBRANCH  24  25
ENDBRANCH   5  23
TORSDOF 5
