REMARK VINA RESULT:     -11.9      0.000      0.000
REMARK  7 active torsions:
REMARK  status: ('A' for Active; 'I' for Inactive)
REMARK    1  A    between atoms: N_5  and  C_15 
REMARK    2  A    between atoms: N_7  and  C_22 
REMARK       I    between atoms: N_7  and  C_24 
REMARK    3  A    between atoms: C_15  and  C_16 
REMARK    4  A    between atoms: C_18  and  C_23 
REMARK    5  A    between atoms: C_24  and  C_25 
REMARK    6  A    between atoms: C_28  and  C_32 
REMARK    7  A    between atoms: C_33  and  C_35 
ROOT
HETATM    1  O   UNL     1      40.366  16.882  39.298  1.00  0.00    -0.267 OA
HETATM    2  N   UNL     1      40.973  14.614  39.185  1.00  0.00    -0.323 N 
HETATM    3  C   UNL     1      40.087  15.699  39.141  1.00  0.00     0.256 C 
HETATM    4  H   UNL     1      40.603  13.686  38.995  1.00  0.00     0.169 HD
ENDROOT
BRANCH   2   5
HETATM    5  C   UNL     1      42.349  14.637  39.414  1.00  0.00     0.035 A 
HETATM    6  C   UNL     1      42.952  13.614  40.144  1.00  0.00     0.046 A 
HETATM    7  C   UNL     1      44.329  13.637  40.373  1.00  0.00     0.058 A 
HETATM    8  C   UNL     1      45.101  14.684  39.869  1.00  0.00    -0.015 A 
HETATM    9  C   UNL     1      44.498  15.707  39.138  1.00  0.00     0.012 A 
HETATM   10  C   UNL     1      43.121  15.684  38.911  1.00  0.00     0.030 A 
BRANCH   7  11
HETATM   11  C   UNL     1      44.953  12.530  41.156  1.00  0.00     0.418 C 
HETATM   12  F   UNL     1      44.124  11.463  41.350  1.00  0.00    -0.166 F 
HETATM   13  F   UNL     1      46.072  12.011  40.570  1.00  0.00    -0.166 F 
HETATM   14  F   UNL     1      45.341  12.925  42.403  1.00  0.00    -0.166 F 
ENDBRANCH   7  11
BRANCH   8  15
HETATM   15  C   UNL     1      46.588  14.731  40.102  1.00  0.00     0.311 C 
BRANCH  15  16
HETATM   16  N   UNL     1      46.925  15.457  41.325  1.00  0.00     0.096 N 
HETATM   17  C   UNL     1      47.359  16.824  41.016  1.00  0.00     0.303 C 
HETATM   18  C   UNL     1      47.715  17.586  42.299  1.00  0.00     0.302 C 
HETATM   19  N   UNL     1      48.753  16.877  43.056  1.00  0.00     0.087 N 
HETATM   20  C   UNL     1      48.320  15.509  43.363  1.00  0.00     0.302 C 
HETATM   21  C   UNL     1      49.089  17.603  44.280  1.00  0.00     0.310 C 
HETATM   22  C   UNL     1      47.964  14.748  42.081  1.00  0.00     0.303 C 
ENDBRANCH  15  16
ENDBRANCH   8  15
ENDBRANCH   2   5
BRANCH   3  23
HETATM   23  C   UNL     1      38.663  15.348  38.903  1.00  0.00     0.033 A 
HETATM   24  C   UNL     1      38.154  14.135  39.368  1.00  0.00     0.038 A 
HETATM   25  C   UNL     1      36.817  13.808  39.145  1.00  0.00     0.025 A 
HETATM   26  C   UNL     1      35.987  14.693  38.456  1.00  0.00    -0.043 A 
HETATM   27  C   UNL     1      36.496  15.906  37.991  1.00  0.00     0.009 A 
HETATM   28  C   UNL     1      34.549  14.375  38.199  1.00  0.00     0.049 C 
HETATM   29  C   UNL     1      37.833  16.233  38.214  1.00  0.00     0.017 A 
BRANCH  25  30
HETATM   30  C   UNL     1      36.319  12.557  39.631  1.00  0.00    -0.059 C 
HETATM   31  C   UNL     1      35.902  11.507  40.040  1.00  0.00    -0.040 C 
BRANCH  31  32
HETATM   32  C   UNL     1      35.404  10.258  40.525  1.00  0.00     0.131 A 
HETATM   33  N   UNL     1      35.195   9.921  41.837  1.00  0.00    -0.206 N 
HETATM   34  N   UNL     1      35.430  10.724  42.913  1.00  0.00    -0.177 NA
HETATM   35  C   UNL     1      34.708   8.626  41.853  1.00  0.00     0.151 A 
HETATM   36  C   UNL     1      35.145  10.155  44.042  1.00  0.00     0.139 A 
HETATM   37  C   UNL     1      34.618   8.782  44.225  1.00  0.00     0.025 A 
HETATM   38  C   UNL     1      34.417   8.060  43.117  1.00  0.00     0.054 A 
HETATM   39  N   UNL     1      34.603   8.141  40.632  1.00  0.00    -0.238 NA
HETATM   40  C   UNL     1      35.031   9.148  39.805  1.00  0.00     0.160 A 
ENDBRANCH  31  32
ENDBRANCH  25  30
ENDBRANCH   3  23
TORSDOF 7
