REMARK VINA RESULT:     -10.1     11.736     17.358
REMARK  7 active torsions:
REMARK  status: ('A' for Active; 'I' for Inactive)
REMARK    1  A    between atoms: N_5  and  C_15 
REMARK    2  A    between atoms: N_7  and  C_22 
REMARK       I    between atoms: N_7  and  C_24 
REMARK    3  A    between atoms: C_15  and  C_16 
REMARK    4  A    between atoms: C_18  and  C_23 
REMARK    5  A    between atoms: C_24  and  C_25 
REMARK    6  A    between atoms: C_28  and  C_32 
REMARK    7  A    between atoms: C_33  and  C_35 
ROOT
HETATM    1  O   UNL     1      34.495   4.846  50.718  1.00  0.00    -0.267 OA
HETATM    2  N   UNL     1      34.255   6.002  52.751  1.00  0.00    -0.323 N 
HETATM    3  C   UNL     1      34.279   5.870  51.356  1.00  0.00     0.256 C 
HETATM    4  H   UNL     1      34.021   6.911  53.141  1.00  0.00     0.169 HD
ENDROOT
BRANCH   2   5
HETATM    5  C   UNL     1      34.466   5.013  53.711  1.00  0.00     0.035 A 
HETATM    6  C   UNL     1      33.379   4.433  54.366  1.00  0.00     0.046 A 
HETATM    7  C   UNL     1      33.590   3.443  55.326  1.00  0.00     0.058 A 
HETATM    8  C   UNL     1      34.887   3.032  55.630  1.00  0.00    -0.015 A 
HETATM    9  C   UNL     1      35.974   3.610  54.974  1.00  0.00     0.012 A 
HETATM   10  C   UNL     1      35.763   4.601  54.015  1.00  0.00     0.030 A 
BRANCH   7  11
HETATM   11  C   UNL     1      32.411   2.836  56.013  1.00  0.00     0.418 C 
HETATM   12  F   UNL     1      32.394   3.051  57.362  1.00  0.00    -0.166 F 
HETATM   13  F   UNL     1      31.213   3.309  55.560  1.00  0.00    -0.166 F 
HETATM   14  F   UNL     1      32.354   1.482  55.857  1.00  0.00    -0.166 F 
ENDBRANCH   7  11
BRANCH   8  15
HETATM   15  C   UNL     1      35.140   1.964  56.662  1.00  0.00     0.311 C 
BRANCH  15  16
HETATM   16  N   UNL     1      35.825   2.496  57.838  1.00  0.00     0.096 N 
HETATM   17  C   UNL     1      36.371   1.410  58.660  1.00  0.00     0.303 C 
HETATM   18  C   UNL     1      37.088   1.967  59.895  1.00  0.00     0.302 C 
HETATM   19  N   UNL     1      36.183   2.806  60.690  1.00  0.00     0.087 N 
HETATM   20  C   UNL     1      35.636   3.892  59.868  1.00  0.00     0.302 C 
HETATM   21  C   UNL     1      36.869   3.339  61.865  1.00  0.00     0.310 C 
HETATM   22  C   UNL     1      34.920   3.335  58.633  1.00  0.00     0.303 C 
ENDBRANCH  15  16
ENDBRANCH   8  15
ENDBRANCH   2   5
BRANCH   3  23
HETATM   23  C   UNL     1      34.042   7.124  50.593  1.00  0.00     0.033 A 
HETATM   24  C   UNL     1      34.215   7.143  49.209  1.00  0.00     0.038 A 
HETATM   25  C   UNL     1      33.990   8.319  48.494  1.00  0.00     0.025 A 
HETATM   26  C   UNL     1      33.593   9.477  49.163  1.00  0.00    -0.043 A 
HETATM   27  C   UNL     1      33.420   9.458  50.547  1.00  0.00     0.009 A 
HETATM   28  C   UNL     1      33.344  10.756  48.430  1.00  0.00     0.049 C 
HETATM   29  C   UNL     1      33.645   8.282  51.262  1.00  0.00     0.017 A 
BRANCH  25  30
HETATM   30  C   UNL     1      34.176   8.314  47.075  1.00  0.00    -0.059 C 
HETATM   31  C   UNL     1      34.331   8.309  45.883  1.00  0.00    -0.040 C 
BRANCH  31  32
HETATM   32  C   UNL     1      34.516   8.303  44.466  1.00  0.00     0.131 A 
HETATM   33  N   UNL     1      35.384   9.091  43.756  1.00  0.00    -0.206 N 
HETATM   34  N   UNL     1      36.225  10.025  44.284  1.00  0.00    -0.177 NA
HETATM   35  C   UNL     1      35.238   8.759  42.421  1.00  0.00     0.151 A 
HETATM   36  C   UNL     1      36.938  10.630  43.386  1.00  0.00     0.139 A 
HETATM   37  C   UNL     1      36.899  10.388  41.924  1.00  0.00     0.025 A 
HETATM   38  C   UNL     1      36.044   9.455  41.490  1.00  0.00     0.054 A 
HETATM   39  N   UNL     1      34.334   7.813  42.261  1.00  0.00    -0.238 NA
HETATM   40  C   UNL     1      33.884   7.526  43.524  1.00  0.00     0.160 A 
ENDBRANCH  31  32
ENDBRANCH  25  30
ENDBRANCH   3  23
TORSDOF 7
