REMARK VINA RESULT:     -10.5      1.814      2.663
REMARK  7 active torsions:
REMARK  status: ('A' for Active; 'I' for Inactive)
REMARK    1  A    between atoms: N_5  and  C_15 
REMARK    2  A    between atoms: N_7  and  C_22 
REMARK       I    between atoms: N_7  and  C_24 
REMARK    3  A    between atoms: C_15  and  C_16 
REMARK    4  A    between atoms: C_18  and  C_23 
REMARK    5  A    between atoms: C_24  and  C_25 
REMARK    6  A    between atoms: C_28  and  C_32 
REMARK    7  A    between atoms: C_33  and  C_35 
ROOT
HETATM    1  O   UNL     1      43.276  16.095  38.420  1.00  0.00    -0.267 OA
HETATM    2  N   UNL     1      42.586  14.847  40.290  1.00  0.00    -0.323 N 
HETATM    3  C   UNL     1      42.405  15.556  39.095  1.00  0.00     0.256 C 
HETATM    4  H   UNL     1      41.771  14.418  40.720  1.00  0.00     0.169 HD
ENDROOT
BRANCH   2   5
HETATM    5  C   UNL     1      43.779  14.598  40.968  1.00  0.00     0.035 A 
HETATM    6  C   UNL     1      44.670  13.640  40.484  1.00  0.00     0.046 A 
HETATM    7  C   UNL     1      45.864  13.390  41.162  1.00  0.00     0.058 A 
HETATM    8  C   UNL     1      46.166  14.101  42.323  1.00  0.00    -0.015 A 
HETATM    9  C   UNL     1      45.277  15.060  42.807  1.00  0.00     0.012 A 
HETATM   10  C   UNL     1      44.083  15.308  42.129  1.00  0.00     0.030 A 
BRANCH   7  11
HETATM   11  C   UNL     1      46.802  12.361  40.625  1.00  0.00     0.418 C 
HETATM   12  F   UNL     1      48.005  12.872  40.230  1.00  0.00    -0.166 F 
HETATM   13  F   UNL     1      47.107  11.380  41.524  1.00  0.00    -0.166 F 
HETATM   14  F   UNL     1      46.301  11.716  39.532  1.00  0.00    -0.166 F 
ENDBRANCH   7  11
BRANCH   8  15
HETATM   15  C   UNL     1      47.449  13.851  43.072  1.00  0.00     0.311 C 
BRANCH  15  16
HETATM   16  N   UNL     1      48.450  14.878  42.794  1.00  0.00     0.096 N 
HETATM   17  C   UNL     1      49.776  14.277  42.604  1.00  0.00     0.303 C 
HETATM   18  C   UNL     1      50.827  15.355  42.314  1.00  0.00     0.302 C 
HETATM   19  N   UNL     1      50.866  16.350  43.393  1.00  0.00     0.087 N 
HETATM   20  C   UNL     1      49.541  16.950  43.585  1.00  0.00     0.302 C 
HETATM   21  C   UNL     1      51.867  17.378  43.114  1.00  0.00     0.310 C 
HETATM   22  C   UNL     1      48.490  15.872  43.874  1.00  0.00     0.303 C 
ENDBRANCH  15  16
ENDBRANCH   8  15
ENDBRANCH   2   5
BRANCH   3  23
HETATM   23  C   UNL     1      40.998  15.675  38.632  1.00  0.00     0.033 A 
HETATM   24  C   UNL     1      40.014  14.844  39.167  1.00  0.00     0.038 A 
HETATM   25  C   UNL     1      38.693  14.957  38.733  1.00  0.00     0.025 A 
HETATM   26  C   UNL     1      38.355  15.902  37.764  1.00  0.00    -0.043 A 
HETATM   27  C   UNL     1      39.339  16.733  37.229  1.00  0.00     0.009 A 
HETATM   28  C   UNL     1      36.950  16.052  37.275  1.00  0.00     0.049 C 
HETATM   29  C   UNL     1      40.660  16.620  37.663  1.00  0.00     0.017 A 
BRANCH  25  30
HETATM   30  C   UNL     1      37.701  14.092  39.297  1.00  0.00    -0.059 C 
HETATM   31  C   UNL     1      36.869  13.366  39.770  1.00  0.00    -0.040 C 
BRANCH  31  32
HETATM   32  C   UNL     1      35.878  12.502  40.333  1.00  0.00     0.131 A 
HETATM   33  N   UNL     1      36.026  11.708  41.439  1.00  0.00    -0.206 N 
HETATM   34  N   UNL     1      37.154  11.602  42.198  1.00  0.00    -0.177 NA
HETATM   35  C   UNL     1      34.827  11.045  41.628  1.00  0.00     0.151 A 
HETATM   36  C   UNL     1      37.021  10.776  43.188  1.00  0.00     0.139 A 
HETATM   37  C   UNL     1      35.807   9.994  43.524  1.00  0.00     0.025 A 
HETATM   38  C   UNL     1      34.745  10.156  42.727  1.00  0.00     0.054 A 
HETATM   39  N   UNL     1      33.945  11.381  40.708  1.00  0.00    -0.238 NA
HETATM   40  C   UNL     1      34.591  12.284  39.903  1.00  0.00     0.160 A 
ENDBRANCH  31  32
ENDBRANCH  25  30
ENDBRANCH   3  23
TORSDOF 7
