REMARK VINA RESULT:     -11.4      1.882      2.862
REMARK  7 active torsions:
REMARK  status: ('A' for Active; 'I' for Inactive)
REMARK    1  A    between atoms: N_5  and  C_15 
REMARK    2  A    between atoms: N_7  and  C_22 
REMARK       I    between atoms: N_7  and  C_24 
REMARK    3  A    between atoms: C_15  and  C_16 
REMARK    4  A    between atoms: C_18  and  C_23 
REMARK    5  A    between atoms: C_24  and  C_25 
REMARK    6  A    between atoms: C_28  and  C_32 
REMARK    7  A    between atoms: C_33  and  C_35 
ROOT
HETATM    1  O   UNL     1      40.333  16.834  37.913  1.00  0.00    -0.267 OA
HETATM    2  N   UNL     1      40.923  15.113  39.402  1.00  0.00    -0.323 N 
HETATM    3  C   UNL     1      40.051  15.853  38.592  1.00  0.00     0.256 C 
HETATM    4  H   UNL     1      40.554  14.295  39.880  1.00  0.00     0.169 HD
ENDROOT
BRANCH   2   5
HETATM    5  C   UNL     1      42.286  15.323  39.612  1.00  0.00     0.035 A 
HETATM    6  C   UNL     1      42.797  15.345  40.910  1.00  0.00     0.046 A 
HETATM    7  C   UNL     1      44.160  15.555  41.120  1.00  0.00     0.058 A 
HETATM    8  C   UNL     1      45.012  15.741  40.032  1.00  0.00    -0.015 A 
HETATM    9  C   UNL     1      44.502  15.718  38.734  1.00  0.00     0.012 A 
HETATM   10  C   UNL     1      43.138  15.509  38.524  1.00  0.00     0.030 A 
BRANCH   7  11
HETATM   11  C   UNL     1      44.685  15.573  42.518  1.00  0.00     0.418 C 
HETATM   12  F   UNL     1      45.388  14.451  42.852  1.00  0.00    -0.166 F 
HETATM   13  F   UNL     1      45.531  16.614  42.769  1.00  0.00    -0.166 F 
HETATM   14  F   UNL     1      43.692  15.675  43.448  1.00  0.00    -0.166 F 
ENDBRANCH   7  11
BRANCH   8  15
HETATM   15  C   UNL     1      46.488  15.968  40.233  1.00  0.00     0.311 C 
BRANCH  15  16
HETATM   16  N   UNL     1      47.288  14.896  39.644  1.00  0.00     0.096 N 
HETATM   17  C   UNL     1      46.789  13.582  40.066  1.00  0.00     0.303 C 
HETATM   18  C   UNL     1      47.629  12.456  39.451  1.00  0.00     0.302 C 
HETATM   19  N   UNL     1      49.045  12.606  39.809  1.00  0.00     0.087 N 
HETATM   20  C   UNL     1      49.544  13.921  39.389  1.00  0.00     0.302 C 
HETATM   21  C   UNL     1      49.845  11.535  39.220  1.00  0.00     0.310 C 
HETATM   22  C   UNL     1      48.703  15.046  40.004  1.00  0.00     0.303 C 
ENDBRANCH  15  16
ENDBRANCH   8  15
ENDBRANCH   2   5
BRANCH   3  23
HETATM   23  C   UNL     1      38.637  15.396  38.596  1.00  0.00     0.033 A 
HETATM   24  C   UNL     1      38.263  14.289  39.357  1.00  0.00     0.038 A 
HETATM   25  C   UNL     1      36.935  13.861  39.361  1.00  0.00     0.025 A 
HETATM   26  C   UNL     1      35.981  14.541  38.603  1.00  0.00    -0.043 A 
HETATM   27  C   UNL     1      36.355  15.648  37.842  1.00  0.00     0.009 A 
HETATM   28  C   UNL     1      34.549  14.111  38.583  1.00  0.00     0.049 C 
HETATM   29  C   UNL     1      37.683  16.076  37.839  1.00  0.00     0.017 A 
BRANCH  25  30
HETATM   30  C   UNL     1      36.576  12.721  40.148  1.00  0.00    -0.059 C 
HETATM   31  C   UNL     1      36.274  11.764  40.810  1.00  0.00    -0.040 C 
BRANCH  31  32
HETATM   32  C   UNL     1      35.915  10.626  41.596  1.00  0.00     0.131 A 
HETATM   33  N   UNL     1      35.247   9.513  41.157  1.00  0.00    -0.206 N 
HETATM   34  N   UNL     1      34.803   9.300  39.885  1.00  0.00    -0.177 NA
HETATM   35  C   UNL     1      35.112   8.664  42.241  1.00  0.00     0.151 A 
HETATM   36  C   UNL     1      34.201   8.161  39.744  1.00  0.00     0.139 A 
HETATM   37  C   UNL     1      33.978   7.147  40.802  1.00  0.00     0.025 A 
HETATM   38  C   UNL     1      34.444   7.436  42.022  1.00  0.00     0.054 A 
HETATM   39  N   UNL     1      35.656   9.182  43.324  1.00  0.00    -0.238 NA
HETATM   40  C   UNL     1      36.156  10.397  42.930  1.00  0.00     0.160 A 
ENDBRANCH  31  32
ENDBRANCH  25  30
ENDBRANCH   3  23
TORSDOF 7
